REMARK  Name = ../refined-set-2016/3ujc/3ujc_pocket.pdb
REMARK  163 active torsions:
REMARK  status: ('A' for Active; 'I' for Inactive)
REMARK    1  A    between atoms: _1  and  _3
REMARK    2  A    between atoms: _3  and  _4
REMARK    3  A    between atoms: _3  and  _6
REMARK    4  A    between atoms: _6  and  _7
REMARK    5  A    between atoms: _7  and  _8
REMARK    6  A    between atoms: _13  and  _15
REMARK    7  A    between atoms: _15  and  _16
REMARK    8  A    between atoms: _15  and  _18
REMARK    9  A    between atoms: _18  and  _19
REMARK   10  A    between atoms: _24  and  _25
REMARK   11  A    between atoms: _27  and  _29
REMARK   12  A    between atoms: _29  and  _30
REMARK   13  A    between atoms: _32  and  _34
REMARK   14  A    between atoms: _34  and  _35
REMARK   15  A    between atoms: _34  and  _37
REMARK   16  A    between atoms: _37  and  _38
REMARK   17  A    between atoms: _43  and  _44
REMARK   18  A    between atoms: _46  and  _48
REMARK   19  A    between atoms: _48  and  _49
REMARK   20  A    between atoms: _48  and  _51
REMARK   21  A    between atoms: _51  and  _52
REMARK   22  A    between atoms: _55  and  _57
REMARK   23  A    between atoms: _57  and  _58
REMARK   24  A    between atoms: _57  and  _60
REMARK   25  A    between atoms: _60  and  _61
REMARK   26  A    between atoms: _67  and  _69
REMARK   27  A    between atoms: _69  and  _70
REMARK   28  A    between atoms: _69  and  _72
REMARK   29  A    between atoms: _72  and  _73
REMARK   30  A    between atoms: _78  and  _79
REMARK   31  A    between atoms: _81  and  _83
REMARK   32  A    between atoms: _83  and  _84
REMARK   33  A    between atoms: _83  and  _86
REMARK   34  A    between atoms: _86  and  _87
REMARK   35  A    between atoms: _90  and  _92
REMARK   36  A    between atoms: _92  and  _93
REMARK   37  A    between atoms: _92  and  _95
REMARK   38  A    between atoms: _95  and  _96
REMARK   39  A    between atoms: _98  and  _100
REMARK   40  A    between atoms: _100  and  _101
REMARK   41  A    between atoms: _100  and  _103
REMARK   42  A    between atoms: _103  and  _104
REMARK   43  A    between atoms: _106  and  _108
REMARK   44  A    between atoms: _108  and  _109
REMARK   45  A    between atoms: _111  and  _113
REMARK   46  A    between atoms: _113  and  _114
REMARK   47  A    between atoms: _116  and  _118
REMARK   48  A    between atoms: _118  and  _119
REMARK   49  A    between atoms: _121  and  _123
REMARK   50  A    between atoms: _123  and  _124
REMARK   51  A    between atoms: _126  and  _128
REMARK   52  A    between atoms: _128  and  _129
REMARK   53  A    between atoms: _128  and  _131
REMARK   54  A    between atoms: _131  and  _132
REMARK   55  A    between atoms: _135  and  _137
REMARK   56  A    between atoms: _137  and  _138
REMARK   57  A    between atoms: _137  and  _140
REMARK   58  A    between atoms: _140  and  _141
REMARK   59  A    between atoms: _141  and  _142
REMARK   60  A    between atoms: _142  and  _143
REMARK   61  A    between atoms: _152  and  _154
REMARK   62  A    between atoms: _154  and  _155
REMARK   63  A    between atoms: _154  and  _157
REMARK   64  A    between atoms: _157  and  _158
REMARK   65  A    between atoms: _161  and  _163
REMARK   66  A    between atoms: _163  and  _164
REMARK   67  A    between atoms: _167  and  _169
REMARK   68  A    between atoms: _169  and  _170
REMARK   69  A    between atoms: _169  and  _172
REMARK   70  A    between atoms: _172  and  _173
REMARK   71  A    between atoms: _176  and  _178
REMARK   72  A    between atoms: _178  and  _179
REMARK   73  A    between atoms: _178  and  _181
REMARK   74  A    between atoms: _181  and  _182
REMARK   75  A    between atoms: _185  and  _187
REMARK   76  A    between atoms: _187  and  _188
REMARK   77  A    between atoms: _191  and  _193
REMARK   78  A    between atoms: _193  and  _194
REMARK   79  A    between atoms: _193  and  _196
REMARK   80  A    between atoms: _196  and  _197
REMARK   81  A    between atoms: _200  and  _202
REMARK   82  A    between atoms: _202  and  _203
REMARK   83  A    between atoms: _202  and  _205
REMARK   84  A    between atoms: _205  and  _206
REMARK   85  A    between atoms: _209  and  _211
REMARK   86  A    between atoms: _211  and  _212
REMARK   87  A    between atoms: _211  and  _214
REMARK   88  A    between atoms: _214  and  _215
REMARK   89  A    between atoms: _220  and  _221
REMARK   90  A    between atoms: _223  and  _225
REMARK   91  A    between atoms: _225  and  _226
REMARK   92  A    between atoms: _225  and  _228
REMARK   93  A    between atoms: _228  and  _229
REMARK   94  A    between atoms: _234  and  _235
REMARK   95  A    between atoms: _237  and  _239
REMARK   96  A    between atoms: _239  and  _240
REMARK   97  A    between atoms: _239  and  _242
REMARK   98  A    between atoms: _242  and  _243
REMARK   99  A    between atoms: _243  and  _244
REMARK  100  A    between atoms: _249  and  _251
REMARK  101  A    between atoms: _251  and  _252
REMARK  102  A    between atoms: _251  and  _254
REMARK  103  A    between atoms: _254  and  _255
REMARK  104  A    between atoms: _255  and  _256
REMARK  105  A    between atoms: _256  and  _257
REMARK  106  A    between atoms: _266  and  _268
REMARK  107  A    between atoms: _268  and  _269
REMARK  108  A    between atoms: _268  and  _271
REMARK  109  A    between atoms: _271  and  _272
REMARK  110  A    between atoms: _277  and  _278
REMARK  111  A    between atoms: _280  and  _282
REMARK  112  A    between atoms: _282  and  _283
REMARK  113  A    between atoms: _282  and  _285
REMARK  114  A    between atoms: _285  and  _286
REMARK  115  A    between atoms: _289  and  _291
REMARK  116  A    between atoms: _291  and  _292
REMARK  117  A    between atoms: _291  and  _294
REMARK  118  A    between atoms: _294  and  _295
REMARK  119  A    between atoms: _305  and  _307
REMARK  120  A    between atoms: _307  and  _308
REMARK  121  A    between atoms: _307  and  _310
REMARK  122  A    between atoms: _310  and  _311
REMARK  123  A    between atoms: _314  and  _316
REMARK  124  A    between atoms: _316  and  _317
REMARK  125  A    between atoms: _316  and  _319
REMARK  126  A    between atoms: _319  and  _320
REMARK  127  A    between atoms: _320  and  _321
REMARK  128  A    between atoms: _324  and  _326
REMARK  129  A    between atoms: _326  and  _327
REMARK  130  A    between atoms: _326  and  _329
REMARK  131  A    between atoms: _329  and  _330
REMARK  132  A    between atoms: _332  and  _334
REMARK  133  A    between atoms: _334  and  _335
REMARK  134  A    between atoms: _334  and  _337
REMARK  135  A    between atoms: _337  and  _338
REMARK  136  A    between atoms: _341  and  _343
REMARK  137  A    between atoms: _343  and  _344
REMARK  138  A    between atoms: _346  and  _348
REMARK  139  A    between atoms: _348  and  _349
REMARK  140  A    between atoms: _348  and  _351
REMARK  141  A    between atoms: _351  and  _352
REMARK  142  A    between atoms: _362  and  _364
REMARK  143  A    between atoms: _364  and  _365
REMARK  144  A    between atoms: _364  and  _367
REMARK  145  A    between atoms: _367  and  _368
REMARK  146  A    between atoms: _368  and  _369
REMARK  147  A    between atoms: _369  and  _370
REMARK  148  A    between atoms: _379  and  _381
REMARK  149  A    between atoms: _381  and  _382
REMARK  150  A    between atoms: _381  and  _384
REMARK  151  A    between atoms: _384  and  _385
REMARK  152  A    between atoms: _385  and  _386
REMARK  153  A    between atoms: _386  and  _387
REMARK  154  A    between atoms: _387  and  _388
REMARK  155  A    between atoms: _392  and  _394
REMARK  156  A    between atoms: _394  and  _395
REMARK  157  A    between atoms: _394  and  _397
REMARK  158  A    between atoms: _397  and  _398
REMARK  159  A    between atoms: _398  and  _399
REMARK  160  A    between atoms: _404  and  _406
REMARK  161  A    between atoms: _406  and  _407
REMARK  162  A    between atoms: _406  and  _409
REMARK  163  A    between atoms: _409  and  _410
REMARK                            x       y       z     vdW  Elec       q    Type
REMARK                         _______ _______ _______ _____ _____    ______ ____
ROOT
ATOM      1  C   GLN A   1      22.044   7.291  15.075  0.00  0.00    +0.238 C 
ATOM      2  N   TYR A   2      23.268   7.645  14.707  0.00  0.00    -0.298 N 
ATOM      3  H   TYR A   2      24.090   7.242  15.201  0.00  0.00    +0.150 HD
ATOM      4  O   GLN A   1      21.038   7.619  14.445  0.00  0.00    -0.274 OA
ENDROOT
BRANCH   1   5
ATOM      5  CA  GLN A   1      21.931   6.422  16.326  0.00  0.00    +0.145 C 
BRANCH   5   6
ATOM      6  N   GLN A   1      23.028   5.469  16.422  0.00  0.00    -0.238 NA
ATOM      7  H   GLN A   1      23.669   5.506  17.240  0.00  0.00    +0.142 HD
ENDBRANCH   5   6
BRANCH   5   8
ATOM      8  CB  GLN A   1      21.849   7.301  17.579  0.00  0.00    +0.036 C 
BRANCH   8   9
ATOM      9  CG  GLN A   1      20.676   8.266  17.529  0.00  0.00    +0.087 C 
BRANCH   9  10
ATOM     10  CD  GLN A   1      20.435   9.007  18.831  0.00  0.00    +0.219 C 
ATOM     11  NE2 GLN A   1      21.410   8.978  19.720  0.00  0.00    -0.329 N 
ATOM     12 HE21 GLN A   1      21.303   9.477  20.626  0.00  0.00    +0.145 HD
ATOM     13 HE22 GLN A   1      22.286   8.456  19.514  0.00  0.00    +0.145 HD
ATOM     14  OE1 GLN A   1      19.371   9.613  19.024  0.00  0.00    -0.275 OA
ENDBRANCH   9  10
ENDBRANCH   8   9
ENDBRANCH   5   8
ENDBRANCH   1   5
BRANCH   2  15
ATOM     15  CA  TYR A   2      23.475   8.590  13.620  0.00  0.00    +0.141 C 
BRANCH  15  16
ATOM     16  C   TYR A   2      24.262   8.007  12.455  0.00  0.00    +0.227 C 
ATOM     17  O   TYR A   2      25.142   8.662  11.900  0.00  0.00    -0.286 OA
ENDBRANCH  15  16
BRANCH  15  18
ATOM     18  CB  TYR A   2      24.119   9.871  14.143  0.00  0.00    +0.054 C 
BRANCH  18  19
ATOM     19  CG  TYR A   2      23.262  10.561  15.185  0.00  0.00    -0.020 A 
ATOM     20  CD2 TYR A   2      23.683  10.667  16.508  0.00  0.00    -0.001 A 
ATOM     21  CE2 TYR A   2      22.894  11.298  17.463  0.00  0.00    +0.036 A 
ATOM     22  CZ  TYR A   2      21.673  11.832  17.093  0.00  0.00    +0.134 A 
ATOM     23  CE1 TYR A   2      21.229  11.736  15.793  0.00  0.00    +0.036 A 
ATOM     24  CD1 TYR A   2      22.023  11.105  14.846  0.00  0.00    -0.001 A 
BRANCH  22  25
ATOM     25  OH  TYR A   2      20.884  12.466  18.023  0.00  0.00    -0.506 OA
ATOM     26  HH  TYR A   2      21.376  13.238  18.401  0.00  0.00    +0.292 HD
ENDBRANCH  22  25
ENDBRANCH  18  19
ENDBRANCH  15  18
ENDBRANCH   2  15
TORSDOF 10
REMARK  Name = ../refined-set-2016/3ujc/3ujc_pocket.pdb
REMARK  163 active torsions:
REMARK  status: ('A' for Active; 'I' for Inactive)
REMARK    1  A    between atoms: _1  and  _3
REMARK    2  A    between atoms: _3  and  _4
REMARK    3  A    between atoms: _3  and  _6
REMARK    4  A    between atoms: _6  and  _7
REMARK    5  A    between atoms: _7  and  _8
REMARK    6  A    between atoms: _13  and  _15
REMARK    7  A    between atoms: _15  and  _16
REMARK    8  A    between atoms: _15  and  _18
REMARK    9  A    between atoms: _18  and  _19
REMARK   10  A    between atoms: _24  and  _25
REMARK   11  A    between atoms: _27  and  _29
REMARK   12  A    between atoms: _29  and  _30
REMARK   13  A    between atoms: _32  and  _34
REMARK   14  A    between atoms: _34  and  _35
REMARK   15  A    between atoms: _34  and  _37
REMARK   16  A    between atoms: _37  and  _38
REMARK   17  A    between atoms: _43  and  _44
REMARK   18  A    between atoms: _46  and  _48
REMARK   19  A    between atoms: _48  and  _49
REMARK   20  A    between atoms: _48  and  _51
REMARK   21  A    between atoms: _51  and  _52
REMARK   22  A    between atoms: _55  and  _57
REMARK   23  A    between atoms: _57  and  _58
REMARK   24  A    between atoms: _57  and  _60
REMARK   25  A    between atoms: _60  and  _61
REMARK   26  A    between atoms: _67  and  _69
REMARK   27  A    between atoms: _69  and  _70
REMARK   28  A    between atoms: _69  and  _72
REMARK   29  A    between atoms: _72  and  _73
REMARK   30  A    between atoms: _78  and  _79
REMARK   31  A    between atoms: _81  and  _83
REMARK   32  A    between atoms: _83  and  _84
REMARK   33  A    between atoms: _83  and  _86
REMARK   34  A    between atoms: _86  and  _87
REMARK   35  A    between atoms: _90  and  _92
REMARK   36  A    between atoms: _92  and  _93
REMARK   37  A    between atoms: _92  and  _95
REMARK   38  A    between atoms: _95  and  _96
REMARK   39  A    between atoms: _98  and  _100
REMARK   40  A    between atoms: _100  and  _101
REMARK   41  A    between atoms: _100  and  _103
REMARK   42  A    between atoms: _103  and  _104
REMARK   43  A    between atoms: _106  and  _108
REMARK   44  A    between atoms: _108  and  _109
REMARK   45  A    between atoms: _111  and  _113
REMARK   46  A    between atoms: _113  and  _114
REMARK   47  A    between atoms: _116  and  _118
REMARK   48  A    between atoms: _118  and  _119
REMARK   49  A    between atoms: _121  and  _123
REMARK   50  A    between atoms: _123  and  _124
REMARK   51  A    between atoms: _126  and  _128
REMARK   52  A    between atoms: _128  and  _129
REMARK   53  A    between atoms: _128  and  _131
REMARK   54  A    between atoms: _131  and  _132
REMARK   55  A    between atoms: _135  and  _137
REMARK   56  A    between atoms: _137  and  _138
REMARK   57  A    between atoms: _137  and  _140
REMARK   58  A    between atoms: _140  and  _141
REMARK   59  A    between atoms: _141  and  _142
REMARK   60  A    between atoms: _142  and  _143
REMARK   61  A    between atoms: _152  and  _154
REMARK   62  A    between atoms: _154  and  _155
REMARK   63  A    between atoms: _154  and  _157
REMARK   64  A    between atoms: _157  and  _158
REMARK   65  A    between atoms: _161  and  _163
REMARK   66  A    between atoms: _163  and  _164
REMARK   67  A    between atoms: _167  and  _169
REMARK   68  A    between atoms: _169  and  _170
REMARK   69  A    between atoms: _169  and  _172
REMARK   70  A    between atoms: _172  and  _173
REMARK   71  A    between atoms: _176  and  _178
REMARK   72  A    between atoms: _178  and  _179
REMARK   73  A    between atoms: _178  and  _181
REMARK   74  A    between atoms: _181  and  _182
REMARK   75  A    between atoms: _185  and  _187
REMARK   76  A    between atoms: _187  and  _188
REMARK   77  A    between atoms: _191  and  _193
REMARK   78  A    between atoms: _193  and  _194
REMARK   79  A    between atoms: _193  and  _196
REMARK   80  A    between atoms: _196  and  _197
REMARK   81  A    between atoms: _200  and  _202
REMARK   82  A    between atoms: _202  and  _203
REMARK   83  A    between atoms: _202  and  _205
REMARK   84  A    between atoms: _205  and  _206
REMARK   85  A    between atoms: _209  and  _211
REMARK   86  A    between atoms: _211  and  _212
REMARK   87  A    between atoms: _211  and  _214
REMARK   88  A    between atoms: _214  and  _215
REMARK   89  A    between atoms: _220  and  _221
REMARK   90  A    between atoms: _223  and  _225
REMARK   91  A    between atoms: _225  and  _226
REMARK   92  A    between atoms: _225  and  _228
REMARK   93  A    between atoms: _228  and  _229
REMARK   94  A    between atoms: _234  and  _235
REMARK   95  A    between atoms: _237  and  _239
REMARK   96  A    between atoms: _239  and  _240
REMARK   97  A    between atoms: _239  and  _242
REMARK   98  A    between atoms: _242  and  _243
REMARK   99  A    between atoms: _243  and  _244
REMARK  100  A    between atoms: _249  and  _251
REMARK  101  A    between atoms: _251  and  _252
REMARK  102  A    between atoms: _251  and  _254
REMARK  103  A    between atoms: _254  and  _255
REMARK  104  A    between atoms: _255  and  _256
REMARK  105  A    between atoms: _256  and  _257
REMARK  106  A    between atoms: _266  and  _268
REMARK  107  A    between atoms: _268  and  _269
REMARK  108  A    between atoms: _268  and  _271
REMARK  109  A    between atoms: _271  and  _272
REMARK  110  A    between atoms: _277  and  _278
REMARK  111  A    between atoms: _280  and  _282
REMARK  112  A    between atoms: _282  and  _283
REMARK  113  A    between atoms: _282  and  _285
REMARK  114  A    between atoms: _285  and  _286
REMARK  115  A    between atoms: _289  and  _291
REMARK  116  A    between atoms: _291  and  _292
REMARK  117  A    between atoms: _291  and  _294
REMARK  118  A    between atoms: _294  and  _295
REMARK  119  A    between atoms: _305  and  _307
REMARK  120  A    between atoms: _307  and  _308
REMARK  121  A    between atoms: _307  and  _310
REMARK  122  A    between atoms: _310  and  _311
REMARK  123  A    between atoms: _314  and  _316
REMARK  124  A    between atoms: _316  and  _317
REMARK  125  A    between atoms: _316  and  _319
REMARK  126  A    between atoms: _319  and  _320
REMARK  127  A    between atoms: _320  and  _321
REMARK  128  A    between atoms: _324  and  _326
REMARK  129  A    between atoms: _326  and  _327
REMARK  130  A    between atoms: _326  and  _329
REMARK  131  A    between atoms: _329  and  _330
REMARK  132  A    between atoms: _332  and  _334
REMARK  133  A    between atoms: _334  and  _335
REMARK  134  A    between atoms: _334  and  _337
REMARK  135  A    between atoms: _337  and  _338
REMARK  136  A    between atoms: _341  and  _343
REMARK  137  A    between atoms: _343  and  _344
REMARK  138  A    between atoms: _346  and  _348
REMARK  139  A    between atoms: _348  and  _349
REMARK  140  A    between atoms: _348  and  _351
REMARK  141  A    between atoms: _351  and  _352
REMARK  142  A    between atoms: _362  and  _364
REMARK  143  A    between atoms: _364  and  _365
REMARK  144  A    between atoms: _364  and  _367
REMARK  145  A    between atoms: _367  and  _368
REMARK  146  A    between atoms: _368  and  _369
REMARK  147  A    between atoms: _369  and  _370
REMARK  148  A    between atoms: _379  and  _381
REMARK  149  A    between atoms: _381  and  _382
REMARK  150  A    between atoms: _381  and  _384
REMARK  151  A    between atoms: _384  and  _385
REMARK  152  A    between atoms: _385  and  _386
REMARK  153  A    between atoms: _386  and  _387
REMARK  154  A    between atoms: _387  and  _388
REMARK  155  A    between atoms: _392  and  _394
REMARK  156  A    between atoms: _394  and  _395
REMARK  157  A    between atoms: _394  and  _397
REMARK  158  A    between atoms: _397  and  _398
REMARK  159  A    between atoms: _398  and  _399
REMARK  160  A    between atoms: _404  and  _406
REMARK  161  A    between atoms: _406  and  _407
REMARK  162  A    between atoms: _406  and  _409
REMARK  163  A    between atoms: _409  and  _410
REMARK                            x       y       z     vdW  Elec       q    Type
REMARK                         _______ _______ _______ _____ _____    ______ ____
ROOT
ATOM      1  CA  GLY A   1      19.458   6.913  10.836  0.00  0.00    +0.156 C 
ENDROOT
BRANCH   1   2
ATOM      2  N   GLY A   1      20.127   6.457   9.629  0.00  0.00    -0.238 NA
ATOM      3  H   GLY A   1      21.068   6.019   9.700  0.00  0.00    +0.142 HD
ENDBRANCH   1   2
BRANCH   1   4
ATOM      4  C   GLY A   1      19.181   8.401  10.751  0.00  0.00    +0.226 C 
ATOM      5  O   GLY A   1      18.105   8.881  11.132  0.00  0.00    -0.287 OA
ENDBRANCH   1   4
TORSDOF 2
REMARK  Name = ../refined-set-2016/3ujc/3ujc_pocket.pdb
REMARK  163 active torsions:
REMARK  status: ('A' for Active; 'I' for Inactive)
REMARK    1  A    between atoms: _1  and  _3
REMARK    2  A    between atoms: _3  and  _4
REMARK    3  A    between atoms: _3  and  _6
REMARK    4  A    between atoms: _6  and  _7
REMARK    5  A    between atoms: _7  and  _8
REMARK    6  A    between atoms: _13  and  _15
REMARK    7  A    between atoms: _15  and  _16
REMARK    8  A    between atoms: _15  and  _18
REMARK    9  A    between atoms: _18  and  _19
REMARK   10  A    between atoms: _24  and  _25
REMARK   11  A    between atoms: _27  and  _29
REMARK   12  A    between atoms: _29  and  _30
REMARK   13  A    between atoms: _32  and  _34
REMARK   14  A    between atoms: _34  and  _35
REMARK   15  A    between atoms: _34  and  _37
REMARK   16  A    between atoms: _37  and  _38
REMARK   17  A    between atoms: _43  and  _44
REMARK   18  A    between atoms: _46  and  _48
REMARK   19  A    between atoms: _48  and  _49
REMARK   20  A    between atoms: _48  and  _51
REMARK   21  A    between atoms: _51  and  _52
REMARK   22  A    between atoms: _55  and  _57
REMARK   23  A    between atoms: _57  and  _58
REMARK   24  A    between atoms: _57  and  _60
REMARK   25  A    between atoms: _60  and  _61
REMARK   26  A    between atoms: _67  and  _69
REMARK   27  A    between atoms: _69  and  _70
REMARK   28  A    between atoms: _69  and  _72
REMARK   29  A    between atoms: _72  and  _73
REMARK   30  A    between atoms: _78  and  _79
REMARK   31  A    between atoms: _81  and  _83
REMARK   32  A    between atoms: _83  and  _84
REMARK   33  A    between atoms: _83  and  _86
REMARK   34  A    between atoms: _86  and  _87
REMARK   35  A    between atoms: _90  and  _92
REMARK   36  A    between atoms: _92  and  _93
REMARK   37  A    between atoms: _92  and  _95
REMARK   38  A    between atoms: _95  and  _96
REMARK   39  A    between atoms: _98  and  _100
REMARK   40  A    between atoms: _100  and  _101
REMARK   41  A    between atoms: _100  and  _103
REMARK   42  A    between atoms: _103  and  _104
REMARK   43  A    between atoms: _106  and  _108
REMARK   44  A    between atoms: _108  and  _109
REMARK   45  A    between atoms: _111  and  _113
REMARK   46  A    between atoms: _113  and  _114
REMARK   47  A    between atoms: _116  and  _118
REMARK   48  A    between atoms: _118  and  _119
REMARK   49  A    between atoms: _121  and  _123
REMARK   50  A    between atoms: _123  and  _124
REMARK   51  A    between atoms: _126  and  _128
REMARK   52  A    between atoms: _128  and  _129
REMARK   53  A    between atoms: _128  and  _131
REMARK   54  A    between atoms: _131  and  _132
REMARK   55  A    between atoms: _135  and  _137
REMARK   56  A    between atoms: _137  and  _138
REMARK   57  A    between atoms: _137  and  _140
REMARK   58  A    between atoms: _140  and  _141
REMARK   59  A    between atoms: _141  and  _142
REMARK   60  A    between atoms: _142  and  _143
REMARK   61  A    between atoms: _152  and  _154
REMARK   62  A    between atoms: _154  and  _155
REMARK   63  A    between atoms: _154  and  _157
REMARK   64  A    between atoms: _157  and  _158
REMARK   65  A    between atoms: _161  and  _163
REMARK   66  A    between atoms: _163  and  _164
REMARK   67  A    between atoms: _167  and  _169
REMARK   68  A    between atoms: _169  and  _170
REMARK   69  A    between atoms: _169  and  _172
REMARK   70  A    between atoms: _172  and  _173
REMARK   71  A    between atoms: _176  and  _178
REMARK   72  A    between atoms: _178  and  _179
REMARK   73  A    between atoms: _178  and  _181
REMARK   74  A    between atoms: _181  and  _182
REMARK   75  A    between atoms: _185  and  _187
REMARK   76  A    between atoms: _187  and  _188
REMARK   77  A    between atoms: _191  and  _193
REMARK   78  A    between atoms: _193  and  _194
REMARK   79  A    between atoms: _193  and  _196
REMARK   80  A    between atoms: _196  and  _197
REMARK   81  A    between atoms: _200  and  _202
REMARK   82  A    between atoms: _202  and  _203
REMARK   83  A    between atoms: _202  and  _205
REMARK   84  A    between atoms: _205  and  _206
REMARK   85  A    between atoms: _209  and  _211
REMARK   86  A    between atoms: _211  and  _212
REMARK   87  A    between atoms: _211  and  _214
REMARK   88  A    between atoms: _214  and  _215
REMARK   89  A    between atoms: _220  and  _221
REMARK   90  A    between atoms: _223  and  _225
REMARK   91  A    between atoms: _225  and  _226
REMARK   92  A    between atoms: _225  and  _228
REMARK   93  A    between atoms: _228  and  _229
REMARK   94  A    between atoms: _234  and  _235
REMARK   95  A    between atoms: _237  and  _239
REMARK   96  A    between atoms: _239  and  _240
REMARK   97  A    between atoms: _239  and  _242
REMARK   98  A    between atoms: _242  and  _243
REMARK   99  A    between atoms: _243  and  _244
REMARK  100  A    between atoms: _249  and  _251
REMARK  101  A    between atoms: _251  and  _252
REMARK  102  A    between atoms: _251  and  _254
REMARK  103  A    between atoms: _254  and  _255
REMARK  104  A    between atoms: _255  and  _256
REMARK  105  A    between atoms: _256  and  _257
REMARK  106  A    between atoms: _266  and  _268
REMARK  107  A    between atoms: _268  and  _269
REMARK  108  A    between atoms: _268  and  _271
REMARK  109  A    between atoms: _271  and  _272
REMARK  110  A    between atoms: _277  and  _278
REMARK  111  A    between atoms: _280  and  _282
REMARK  112  A    between atoms: _282  and  _283
REMARK  113  A    between atoms: _282  and  _285
REMARK  114  A    between atoms: _285  and  _286
REMARK  115  A    between atoms: _289  and  _291
REMARK  116  A    between atoms: _291  and  _292
REMARK  117  A    between atoms: _291  and  _294
REMARK  118  A    between atoms: _294  and  _295
REMARK  119  A    between atoms: _305  and  _307
REMARK  120  A    between atoms: _307  and  _308
REMARK  121  A    between atoms: _307  and  _310
REMARK  122  A    between atoms: _310  and  _311
REMARK  123  A    between atoms: _314  and  _316
REMARK  124  A    between atoms: _316  and  _317
REMARK  125  A    between atoms: _316  and  _319
REMARK  126  A    between atoms: _319  and  _320
REMARK  127  A    between atoms: _320  and  _321
REMARK  128  A    between atoms: _324  and  _326
REMARK  129  A    between atoms: _326  and  _327
REMARK  130  A    between atoms: _326  and  _329
REMARK  131  A    between atoms: _329  and  _330
REMARK  132  A    between atoms: _332  and  _334
REMARK  133  A    between atoms: _334  and  _335
REMARK  134  A    between atoms: _334  and  _337
REMARK  135  A    between atoms: _337  and  _338
REMARK  136  A    between atoms: _341  and  _343
REMARK  137  A    between atoms: _343  and  _344
REMARK  138  A    between atoms: _346  and  _348
REMARK  139  A    between atoms: _348  and  _349
REMARK  140  A    between atoms: _348  and  _351
REMARK  141  A    between atoms: _351  and  _352
REMARK  142  A    between atoms: _362  and  _364
REMARK  143  A    between atoms: _364  and  _365
REMARK  144  A    between atoms: _364  and  _367
REMARK  145  A    between atoms: _367  and  _368
REMARK  146  A    between atoms: _368  and  _369
REMARK  147  A    between atoms: _369  and  _370
REMARK  148  A    between atoms: _379  and  _381
REMARK  149  A    between atoms: _381  and  _382
REMARK  150  A    between atoms: _381  and  _384
REMARK  151  A    between atoms: _384  and  _385
REMARK  152  A    between atoms: _385  and  _386
REMARK  153  A    between atoms: _386  and  _387
REMARK  154  A    between atoms: _387  and  _388
REMARK  155  A    between atoms: _392  and  _394
REMARK  156  A    between atoms: _394  and  _395
REMARK  157  A    between atoms: _394  and  _397
REMARK  158  A    between atoms: _397  and  _398
REMARK  159  A    between atoms: _398  and  _399
REMARK  160  A    between atoms: _404  and  _406
REMARK  161  A    between atoms: _406  and  _407
REMARK  162  A    between atoms: _406  and  _409
REMARK  163  A    between atoms: _409  and  _410
REMARK                            x       y       z     vdW  Elec       q    Type
REMARK                         _______ _______ _______ _____ _____    ______ ____
ROOT
ATOM      1  CG  TYR A   1      16.474  10.910  13.630  0.00  0.00    -0.020 A 
ATOM      2  CD2 TYR A   1      15.371  10.537  14.401  0.00  0.00    -0.001 A 
ATOM      3  CE2 TYR A   1      15.538   9.812  15.588  0.00  0.00    +0.036 A 
ATOM      4  CZ  TYR A   1      16.813   9.471  16.006  0.00  0.00    +0.134 A 
ATOM      5  CE1 TYR A   1      17.911   9.828  15.249  0.00  0.00    +0.036 A 
ATOM      6  CD1 TYR A   1      17.736  10.548  14.083  0.00  0.00    -0.001 A 
ENDROOT
BRANCH   4   7
ATOM      7  OH  TYR A   1      17.002   8.772  17.180  0.00  0.00    -0.506 OA
ATOM      8  HH  TYR A   1      16.124   8.594  17.602  0.00  0.00    +0.292 HD
ENDBRANCH   4   7
BRANCH   1   9
ATOM      9  CB  TYR A   1      16.327  11.751  12.373  0.00  0.00    +0.051 C 
BRANCH   9  10
ATOM     10  CA  TYR A   1      15.148  11.417  11.472  0.00  0.00    +0.137 C 
BRANCH  10  11
ATOM     11  N   TYR A   1      15.488  10.300  10.606  0.00  0.00    -0.239 NA
ATOM     12  H   TYR A   1      16.445   9.895  10.634  0.00  0.00    +0.142 HD
ENDBRANCH  10  11
BRANCH  10  13
ATOM     13  C   TYR A   1      14.738  12.653  10.651  0.00  0.00    +0.224 C 
ATOM     14  O   TYR A   1      13.763  13.334  10.981  0.00  0.00    -0.287 OA
ENDBRANCH  10  13
ENDBRANCH   9  10
ENDBRANCH   1   9
TORSDOF 5
REMARK  Name = ../refined-set-2016/3ujc/3ujc_pocket.pdb
REMARK  163 active torsions:
REMARK  status: ('A' for Active; 'I' for Inactive)
REMARK    1  A    between atoms: _1  and  _3
REMARK    2  A    between atoms: _3  and  _4
REMARK    3  A    between atoms: _3  and  _6
REMARK    4  A    between atoms: _6  and  _7
REMARK    5  A    between atoms: _7  and  _8
REMARK    6  A    between atoms: _13  and  _15
REMARK    7  A    between atoms: _15  and  _16
REMARK    8  A    between atoms: _15  and  _18
REMARK    9  A    between atoms: _18  and  _19
REMARK   10  A    between atoms: _24  and  _25
REMARK   11  A    between atoms: _27  and  _29
REMARK   12  A    between atoms: _29  and  _30
REMARK   13  A    between atoms: _32  and  _34
REMARK   14  A    between atoms: _34  and  _35
REMARK   15  A    between atoms: _34  and  _37
REMARK   16  A    between atoms: _37  and  _38
REMARK   17  A    between atoms: _43  and  _44
REMARK   18  A    between atoms: _46  and  _48
REMARK   19  A    between atoms: _48  and  _49
REMARK   20  A    between atoms: _48  and  _51
REMARK   21  A    between atoms: _51  and  _52
REMARK   22  A    between atoms: _55  and  _57
REMARK   23  A    between atoms: _57  and  _58
REMARK   24  A    between atoms: _57  and  _60
REMARK   25  A    between atoms: _60  and  _61
REMARK   26  A    between atoms: _67  and  _69
REMARK   27  A    between atoms: _69  and  _70
REMARK   28  A    between atoms: _69  and  _72
REMARK   29  A    between atoms: _72  and  _73
REMARK   30  A    between atoms: _78  and  _79
REMARK   31  A    between atoms: _81  and  _83
REMARK   32  A    between atoms: _83  and  _84
REMARK   33  A    between atoms: _83  and  _86
REMARK   34  A    between atoms: _86  and  _87
REMARK   35  A    between atoms: _90  and  _92
REMARK   36  A    between atoms: _92  and  _93
REMARK   37  A    between atoms: _92  and  _95
REMARK   38  A    between atoms: _95  and  _96
REMARK   39  A    between atoms: _98  and  _100
REMARK   40  A    between atoms: _100  and  _101
REMARK   41  A    between atoms: _100  and  _103
REMARK   42  A    between atoms: _103  and  _104
REMARK   43  A    between atoms: _106  and  _108
REMARK   44  A    between atoms: _108  and  _109
REMARK   45  A    between atoms: _111  and  _113
REMARK   46  A    between atoms: _113  and  _114
REMARK   47  A    between atoms: _116  and  _118
REMARK   48  A    between atoms: _118  and  _119
REMARK   49  A    between atoms: _121  and  _123
REMARK   50  A    between atoms: _123  and  _124
REMARK   51  A    between atoms: _126  and  _128
REMARK   52  A    between atoms: _128  and  _129
REMARK   53  A    between atoms: _128  and  _131
REMARK   54  A    between atoms: _131  and  _132
REMARK   55  A    between atoms: _135  and  _137
REMARK   56  A    between atoms: _137  and  _138
REMARK   57  A    between atoms: _137  and  _140
REMARK   58  A    between atoms: _140  and  _141
REMARK   59  A    between atoms: _141  and  _142
REMARK   60  A    between atoms: _142  and  _143
REMARK   61  A    between atoms: _152  and  _154
REMARK   62  A    between atoms: _154  and  _155
REMARK   63  A    between atoms: _154  and  _157
REMARK   64  A    between atoms: _157  and  _158
REMARK   65  A    between atoms: _161  and  _163
REMARK   66  A    between atoms: _163  and  _164
REMARK   67  A    between atoms: _167  and  _169
REMARK   68  A    between atoms: _169  and  _170
REMARK   69  A    between atoms: _169  and  _172
REMARK   70  A    between atoms: _172  and  _173
REMARK   71  A    between atoms: _176  and  _178
REMARK   72  A    between atoms: _178  and  _179
REMARK   73  A    between atoms: _178  and  _181
REMARK   74  A    between atoms: _181  and  _182
REMARK   75  A    between atoms: _185  and  _187
REMARK   76  A    between atoms: _187  and  _188
REMARK   77  A    between atoms: _191  and  _193
REMARK   78  A    between atoms: _193  and  _194
REMARK   79  A    between atoms: _193  and  _196
REMARK   80  A    between atoms: _196  and  _197
REMARK   81  A    between atoms: _200  and  _202
REMARK   82  A    between atoms: _202  and  _203
REMARK   83  A    between atoms: _202  and  _205
REMARK   84  A    between atoms: _205  and  _206
REMARK   85  A    between atoms: _209  and  _211
REMARK   86  A    between atoms: _211  and  _212
REMARK   87  A    between atoms: _211  and  _214
REMARK   88  A    between atoms: _214  and  _215
REMARK   89  A    between atoms: _220  and  _221
REMARK   90  A    between atoms: _223  and  _225
REMARK   91  A    between atoms: _225  and  _226
REMARK   92  A    between atoms: _225  and  _228
REMARK   93  A    between atoms: _228  and  _229
REMARK   94  A    between atoms: _234  and  _235
REMARK   95  A    between atoms: _237  and  _239
REMARK   96  A    between atoms: _239  and  _240
REMARK   97  A    between atoms: _239  and  _242
REMARK   98  A    between atoms: _242  and  _243
REMARK   99  A    between atoms: _243  and  _244
REMARK  100  A    between atoms: _249  and  _251
REMARK  101  A    between atoms: _251  and  _252
REMARK  102  A    between atoms: _251  and  _254
REMARK  103  A    between atoms: _254  and  _255
REMARK  104  A    between atoms: _255  and  _256
REMARK  105  A    between atoms: _256  and  _257
REMARK  106  A    between atoms: _266  and  _268
REMARK  107  A    between atoms: _268  and  _269
REMARK  108  A    between atoms: _268  and  _271
REMARK  109  A    between atoms: _271  and  _272
REMARK  110  A    between atoms: _277  and  _278
REMARK  111  A    between atoms: _280  and  _282
REMARK  112  A    between atoms: _282  and  _283
REMARK  113  A    between atoms: _282  and  _285
REMARK  114  A    between atoms: _285  and  _286
REMARK  115  A    between atoms: _289  and  _291
REMARK  116  A    between atoms: _291  and  _292
REMARK  117  A    between atoms: _291  and  _294
REMARK  118  A    between atoms: _294  and  _295
REMARK  119  A    between atoms: _305  and  _307
REMARK  120  A    between atoms: _307  and  _308
REMARK  121  A    between atoms: _307  and  _310
REMARK  122  A    between atoms: _310  and  _311
REMARK  123  A    between atoms: _314  and  _316
REMARK  124  A    between atoms: _316  and  _317
REMARK  125  A    between atoms: _316  and  _319
REMARK  126  A    between atoms: _319  and  _320
REMARK  127  A    between atoms: _320  and  _321
REMARK  128  A    between atoms: _324  and  _326
REMARK  129  A    between atoms: _326  and  _327
REMARK  130  A    between atoms: _326  and  _329
REMARK  131  A    between atoms: _329  and  _330
REMARK  132  A    between atoms: _332  and  _334
REMARK  133  A    between atoms: _334  and  _335
REMARK  134  A    between atoms: _334  and  _337
REMARK  135  A    between atoms: _337  and  _338
REMARK  136  A    between atoms: _341  and  _343
REMARK  137  A    between atoms: _343  and  _344
REMARK  138  A    between atoms: _346  and  _348
REMARK  139  A    between atoms: _348  and  _349
REMARK  140  A    between atoms: _348  and  _351
REMARK  141  A    between atoms: _351  and  _352
REMARK  142  A    between atoms: _362  and  _364
REMARK  143  A    between atoms: _364  and  _365
REMARK  144  A    between atoms: _364  and  _367
REMARK  145  A    between atoms: _367  and  _368
REMARK  146  A    between atoms: _368  and  _369
REMARK  147  A    between atoms: _369  and  _370
REMARK  148  A    between atoms: _379  and  _381
REMARK  149  A    between atoms: _381  and  _382
REMARK  150  A    between atoms: _381  and  _384
REMARK  151  A    between atoms: _384  and  _385
REMARK  152  A    between atoms: _385  and  _386
REMARK  153  A    between atoms: _386  and  _387
REMARK  154  A    between atoms: _387  and  _388
REMARK  155  A    between atoms: _392  and  _394
REMARK  156  A    between atoms: _394  and  _395
REMARK  157  A    between atoms: _394  and  _397
REMARK  158  A    between atoms: _397  and  _398
REMARK  159  A    between atoms: _398  and  _399
REMARK  160  A    between atoms: _404  and  _406
REMARK  161  A    between atoms: _406  and  _407
REMARK  162  A    between atoms: _406  and  _409
REMARK  163  A    between atoms: _409  and  _410
REMARK                            x       y       z     vdW  Elec       q    Type
REMARK                         _______ _______ _______ _____ _____    ______ ____
ROOT
ATOM      1  C   ILE A   1      10.211  14.540  10.993  0.00  0.00    +0.238 C 
ATOM      2  N   PHE A   2      11.441  14.982  11.232  0.00  0.00    -0.298 N 
ATOM      3  H   PHE A   2      12.259  14.371  11.034  0.00  0.00    +0.150 HD
ATOM      4  O   ILE A   1       9.210  15.230  11.201  0.00  0.00    -0.274 OA
ENDROOT
BRANCH   1   5
ATOM      5  CA  ILE A   1      10.061  13.121  10.419  0.00  0.00    +0.145 C 
BRANCH   5   6
ATOM      6  N   ILE A   1      11.108  12.770   9.460  0.00  0.00    -0.238 NA
ATOM      7  H   ILE A   1      11.965  12.280   9.787  0.00  0.00    +0.142 HD
ENDBRANCH   5   6
BRANCH   5   8
ATOM      8  CB  ILE A   1       9.896  12.033  11.520  0.00  0.00    +0.025 C 
ATOM      9  CG2 ILE A   1      11.164  11.884  12.347  0.00  0.00    +0.002 C 
BRANCH   8  10
ATOM     10  CG1 ILE A   1       8.674  12.315  12.399  0.00  0.00    +0.002 C 
ATOM     11  CD1 ILE A   1       8.250  11.113  13.222  0.00  0.00    +0.000 C 
ENDBRANCH   8  10
ENDBRANCH   5   8
ENDBRANCH   1   5
BRANCH   2  12
ATOM     12  CA  PHE A   2      11.649  16.326  11.773  0.00  0.00    +0.141 C 
BRANCH  12  13
ATOM     13  C   PHE A   2      11.499  17.414  10.718  0.00  0.00    +0.227 C 
ATOM     14  O   PHE A   2      11.081  18.527  11.028  0.00  0.00    -0.286 OA
ENDBRANCH  12  13
BRANCH  12  15
ATOM     15  CB  PHE A   2      13.033  16.464  12.413  0.00  0.00    +0.054 C 
BRANCH  15  16
ATOM     16  CG  PHE A   2      13.203  15.705  13.709  0.00  0.00    -0.020 A 
ATOM     17  CD2 PHE A   2      12.406  15.981  14.813  0.00  0.00    -0.004 A 
ATOM     18  CE2 PHE A   2      12.585  15.306  16.010  0.00  0.00    -0.000 A 
ATOM     19  CZ  PHE A   2      13.581  14.347  16.115  0.00  0.00    -0.000 A 
ATOM     20  CE1 PHE A   2      14.383  14.064  15.021  0.00  0.00    -0.000 A 
ATOM     21  CD1 PHE A   2      14.199  14.751  13.832  0.00  0.00    -0.004 A 
ENDBRANCH  15  16
ENDBRANCH  12  15
ENDBRANCH   2  12
TORSDOF 8
REMARK  Name = ../refined-set-2016/3ujc/3ujc_pocket.pdb
REMARK  163 active torsions:
REMARK  status: ('A' for Active; 'I' for Inactive)
REMARK    1  A    between atoms: _1  and  _3
REMARK    2  A    between atoms: _3  and  _4
REMARK    3  A    between atoms: _3  and  _6
REMARK    4  A    between atoms: _6  and  _7
REMARK    5  A    between atoms: _7  and  _8
REMARK    6  A    between atoms: _13  and  _15
REMARK    7  A    between atoms: _15  and  _16
REMARK    8  A    between atoms: _15  and  _18
REMARK    9  A    between atoms: _18  and  _19
REMARK   10  A    between atoms: _24  and  _25
REMARK   11  A    between atoms: _27  and  _29
REMARK   12  A    between atoms: _29  and  _30
REMARK   13  A    between atoms: _32  and  _34
REMARK   14  A    between atoms: _34  and  _35
REMARK   15  A    between atoms: _34  and  _37
REMARK   16  A    between atoms: _37  and  _38
REMARK   17  A    between atoms: _43  and  _44
REMARK   18  A    between atoms: _46  and  _48
REMARK   19  A    between atoms: _48  and  _49
REMARK   20  A    between atoms: _48  and  _51
REMARK   21  A    between atoms: _51  and  _52
REMARK   22  A    between atoms: _55  and  _57
REMARK   23  A    between atoms: _57  and  _58
REMARK   24  A    between atoms: _57  and  _60
REMARK   25  A    between atoms: _60  and  _61
REMARK   26  A    between atoms: _67  and  _69
REMARK   27  A    between atoms: _69  and  _70
REMARK   28  A    between atoms: _69  and  _72
REMARK   29  A    between atoms: _72  and  _73
REMARK   30  A    between atoms: _78  and  _79
REMARK   31  A    between atoms: _81  and  _83
REMARK   32  A    between atoms: _83  and  _84
REMARK   33  A    between atoms: _83  and  _86
REMARK   34  A    between atoms: _86  and  _87
REMARK   35  A    between atoms: _90  and  _92
REMARK   36  A    between atoms: _92  and  _93
REMARK   37  A    between atoms: _92  and  _95
REMARK   38  A    between atoms: _95  and  _96
REMARK   39  A    between atoms: _98  and  _100
REMARK   40  A    between atoms: _100  and  _101
REMARK   41  A    between atoms: _100  and  _103
REMARK   42  A    between atoms: _103  and  _104
REMARK   43  A    between atoms: _106  and  _108
REMARK   44  A    between atoms: _108  and  _109
REMARK   45  A    between atoms: _111  and  _113
REMARK   46  A    between atoms: _113  and  _114
REMARK   47  A    between atoms: _116  and  _118
REMARK   48  A    between atoms: _118  and  _119
REMARK   49  A    between atoms: _121  and  _123
REMARK   50  A    between atoms: _123  and  _124
REMARK   51  A    between atoms: _126  and  _128
REMARK   52  A    between atoms: _128  and  _129
REMARK   53  A    between atoms: _128  and  _131
REMARK   54  A    between atoms: _131  and  _132
REMARK   55  A    between atoms: _135  and  _137
REMARK   56  A    between atoms: _137  and  _138
REMARK   57  A    between atoms: _137  and  _140
REMARK   58  A    between atoms: _140  and  _141
REMARK   59  A    between atoms: _141  and  _142
REMARK   60  A    between atoms: _142  and  _143
REMARK   61  A    between atoms: _152  and  _154
REMARK   62  A    between atoms: _154  and  _155
REMARK   63  A    between atoms: _154  and  _157
REMARK   64  A    between atoms: _157  and  _158
REMARK   65  A    between atoms: _161  and  _163
REMARK   66  A    between atoms: _163  and  _164
REMARK   67  A    between atoms: _167  and  _169
REMARK   68  A    between atoms: _169  and  _170
REMARK   69  A    between atoms: _169  and  _172
REMARK   70  A    between atoms: _172  and  _173
REMARK   71  A    between atoms: _176  and  _178
REMARK   72  A    between atoms: _178  and  _179
REMARK   73  A    between atoms: _178  and  _181
REMARK   74  A    between atoms: _181  and  _182
REMARK   75  A    between atoms: _185  and  _187
REMARK   76  A    between atoms: _187  and  _188
REMARK   77  A    between atoms: _191  and  _193
REMARK   78  A    between atoms: _193  and  _194
REMARK   79  A    between atoms: _193  and  _196
REMARK   80  A    between atoms: _196  and  _197
REMARK   81  A    between atoms: _200  and  _202
REMARK   82  A    between atoms: _202  and  _203
REMARK   83  A    between atoms: _202  and  _205
REMARK   84  A    between atoms: _205  and  _206
REMARK   85  A    between atoms: _209  and  _211
REMARK   86  A    between atoms: _211  and  _212
REMARK   87  A    between atoms: _211  and  _214
REMARK   88  A    between atoms: _214  and  _215
REMARK   89  A    between atoms: _220  and  _221
REMARK   90  A    between atoms: _223  and  _225
REMARK   91  A    between atoms: _225  and  _226
REMARK   92  A    between atoms: _225  and  _228
REMARK   93  A    between atoms: _228  and  _229
REMARK   94  A    between atoms: _234  and  _235
REMARK   95  A    between atoms: _237  and  _239
REMARK   96  A    between atoms: _239  and  _240
REMARK   97  A    between atoms: _239  and  _242
REMARK   98  A    between atoms: _242  and  _243
REMARK   99  A    between atoms: _243  and  _244
REMARK  100  A    between atoms: _249  and  _251
REMARK  101  A    between atoms: _251  and  _252
REMARK  102  A    between atoms: _251  and  _254
REMARK  103  A    between atoms: _254  and  _255
REMARK  104  A    between atoms: _255  and  _256
REMARK  105  A    between atoms: _256  and  _257
REMARK  106  A    between atoms: _266  and  _268
REMARK  107  A    between atoms: _268  and  _269
REMARK  108  A    between atoms: _268  and  _271
REMARK  109  A    between atoms: _271  and  _272
REMARK  110  A    between atoms: _277  and  _278
REMARK  111  A    between atoms: _280  and  _282
REMARK  112  A    between atoms: _282  and  _283
REMARK  113  A    between atoms: _282  and  _285
REMARK  114  A    between atoms: _285  and  _286
REMARK  115  A    between atoms: _289  and  _291
REMARK  116  A    between atoms: _291  and  _292
REMARK  117  A    between atoms: _291  and  _294
REMARK  118  A    between atoms: _294  and  _295
REMARK  119  A    between atoms: _305  and  _307
REMARK  120  A    between atoms: _307  and  _308
REMARK  121  A    between atoms: _307  and  _310
REMARK  122  A    between atoms: _310  and  _311
REMARK  123  A    between atoms: _314  and  _316
REMARK  124  A    between atoms: _316  and  _317
REMARK  125  A    between atoms: _316  and  _319
REMARK  126  A    between atoms: _319  and  _320
REMARK  127  A    between atoms: _320  and  _321
REMARK  128  A    between atoms: _324  and  _326
REMARK  129  A    between atoms: _326  and  _327
REMARK  130  A    between atoms: _326  and  _329
REMARK  131  A    between atoms: _329  and  _330
REMARK  132  A    between atoms: _332  and  _334
REMARK  133  A    between atoms: _334  and  _335
REMARK  134  A    between atoms: _334  and  _337
REMARK  135  A    between atoms: _337  and  _338
REMARK  136  A    between atoms: _341  and  _343
REMARK  137  A    between atoms: _343  and  _344
REMARK  138  A    between atoms: _346  and  _348
REMARK  139  A    between atoms: _348  and  _349
REMARK  140  A    between atoms: _348  and  _351
REMARK  141  A    between atoms: _351  and  _352
REMARK  142  A    between atoms: _362  and  _364
REMARK  143  A    between atoms: _364  and  _365
REMARK  144  A    between atoms: _364  and  _367
REMARK  145  A    between atoms: _367  and  _368
REMARK  146  A    between atoms: _368  and  _369
REMARK  147  A    between atoms: _369  and  _370
REMARK  148  A    between atoms: _379  and  _381
REMARK  149  A    between atoms: _381  and  _382
REMARK  150  A    between atoms: _381  and  _384
REMARK  151  A    between atoms: _384  and  _385
REMARK  152  A    between atoms: _385  and  _386
REMARK  153  A    between atoms: _386  and  _387
REMARK  154  A    between atoms: _387  and  _388
REMARK  155  A    between atoms: _392  and  _394
REMARK  156  A    between atoms: _394  and  _395
REMARK  157  A    between atoms: _394  and  _397
REMARK  158  A    between atoms: _397  and  _398
REMARK  159  A    between atoms: _398  and  _399
REMARK  160  A    between atoms: _404  and  _406
REMARK  161  A    between atoms: _406  and  _407
REMARK  162  A    between atoms: _406  and  _409
REMARK  163  A    between atoms: _409  and  _410
REMARK                            x       y       z     vdW  Elec       q    Type
REMARK                         _______ _______ _______ _____ _____    ______ ____
ROOT
ATOM      1  C   ILE A   2      16.956  16.715  14.735  0.00  0.00    +0.241 C 
ATOM      2  O   ILE A   2      16.964  15.897  15.652  0.00  0.00    -0.273 OA
ATOM      3  N   SER A   3      16.604  17.989  14.903  0.00  0.00    -0.295 N 
ATOM      4  H   SER A   3      16.635  18.623  14.079  0.00  0.00    +0.150 HD
ENDROOT
BRANCH   3   5
ATOM      5  CA  SER A   3      16.176  18.540  16.189  0.00  0.00    +0.178 C 
BRANCH   5   6
ATOM      6  C   SER A   3      14.654  18.646  16.302  0.00  0.00    +0.243 C 
ATOM      7  N   SER A   4      14.156  18.589  17.536  0.00  0.00    -0.295 N 
ATOM      8  H   SER A   4      14.812  18.575  18.343  0.00  0.00    +0.150 HD
ATOM      9  O   SER A   3      13.943  18.793  15.293  0.00  0.00    -0.273 OA
BRANCH   7  10
ATOM     10  CA  SER A   4      12.713  18.545  17.796  0.00  0.00    +0.178 C 
BRANCH  10  11
ATOM     11  C   SER A   4      11.983  19.692  17.117  0.00  0.00    +0.243 C 
ATOM     12  O   SER A   4      12.405  20.846  17.221  0.00  0.00    -0.273 OA
ATOM     13  N   GLY A   5      10.880  19.380  16.446  0.00  0.00    -0.295 N 
ATOM     14  H   GLY A   5      10.615  18.380  16.336  0.00  0.00    +0.150 HD
BRANCH  13  15
ATOM     15  CA  GLY A   5      10.037  20.409  15.863  0.00  0.00    +0.176 C 
BRANCH  15  16
ATOM     16  C   GLY A   5      10.563  21.089  14.607  0.00  0.00    +0.243 C 
ATOM     17  N   GLY A   6      11.727  20.661  14.123  0.00  0.00    -0.296 N 
ATOM     18  H   GLY A   6      12.263  19.951  14.663  0.00  0.00    +0.150 HD
ATOM     19  O   GLY A   5       9.920  21.997  14.089  0.00  0.00    -0.273 OA
BRANCH  17  20
ATOM     20  CA  GLY A   6      12.279  21.149  12.866  0.00  0.00    +0.163 C 
BRANCH  20  21
ATOM     21  C   GLY A   6      12.216  22.658  12.713  0.00  0.00    +0.229 C 
ATOM     22  O   GLY A   6      12.597  23.406  13.609  0.00  0.00    -0.286 OA
ENDBRANCH  20  21
ENDBRANCH  17  20
ENDBRANCH  15  16
ENDBRANCH  13  15
ENDBRANCH  10  11
BRANCH  10  23
ATOM     23  CB  SER A   4      12.417  18.631  19.300  0.00  0.00    +0.166 C 
BRANCH  23  24
ATOM     24  OG  SER A   4      13.114  17.649  20.043  0.00  0.00    -0.380 OA
ATOM     25  H   SER A   4      14.088  17.770  19.915  0.00  0.00    +0.211 HD
ENDBRANCH  23  24
ENDBRANCH  10  23
ENDBRANCH   7  10
ENDBRANCH   5   6
BRANCH   5  26
ATOM     26  CB  SER A   3      16.827  19.906  16.423  0.00  0.00    +0.166 C 
BRANCH  26  27
ATOM     27  OG  SER A   3      16.582  20.793  15.337  0.00  0.00    -0.380 OA
ATOM     28  H   SER A   3      15.606  20.924  15.233  0.00  0.00    +0.211 HD
ENDBRANCH  26  27
ENDBRANCH   5  26
ENDBRANCH   3   5
BRANCH   1  29
ATOM     29  CA  ILE A   2      17.332  16.297  13.307  0.00  0.00    +0.148 C 
BRANCH  29  31
ATOM     30  C   TYR A   1      16.768  17.620  11.338  0.00  0.00    +0.239 C 
ATOM     31  N   ILE A   2      17.489  17.469  12.447  0.00  0.00    -0.297 N 
ATOM     32  H   ILE A   2      18.180  18.202  12.708  0.00  0.00    +0.150 HD
ATOM     33  O   TYR A   1      16.138  16.704  10.804  0.00  0.00    -0.274 OA
BRANCH  30  34
ATOM     34  CA  TYR A   1      16.718  19.026  10.780  0.00  0.00    +0.149 C 
BRANCH  34  35
ATOM     35  N   TYR A   1      16.813  19.087   9.322  0.00  0.00    -0.238 NA
ATOM     36  H   TYR A   1      16.176  18.506   8.741  0.00  0.00    +0.142 HD
ENDBRANCH  34  35
BRANCH  34  37
ATOM     37  CB  TYR A   1      15.416  19.674  11.255  0.00  0.00    +0.053 C 
BRANCH  37  38
ATOM     38  CG  TYR A   1      15.417  21.174  11.135  0.00  0.00    -0.020 A 
ATOM     39  CD2 TYR A   1      16.004  21.971  12.117  0.00  0.00    -0.001 A 
ATOM     40  CE2 TYR A   1      16.020  23.343  12.003  0.00  0.00    +0.036 A 
ATOM     41  CZ  TYR A   1      15.430  23.948  10.917  0.00  0.00    +0.134 A 
ATOM     42  CE1 TYR A   1      14.837  23.187   9.925  0.00  0.00    +0.036 A 
ATOM     43  CD1 TYR A   1      14.841  21.801  10.035  0.00  0.00    -0.001 A 
BRANCH  41  44
ATOM     44  OH  TYR A   1      15.446  25.316  10.832  0.00  0.00    -0.506 OA
ATOM     45  HH  TYR A   1      15.925  25.589  10.010  0.00  0.00    +0.292 HD
ENDBRANCH  41  44
ENDBRANCH  37  38
ENDBRANCH  34  37
ENDBRANCH  30  34
ENDBRANCH  29  31
BRANCH  29  46
ATOM     46  CB  ILE A   2      18.587  15.392  13.327  0.00  0.00    +0.027 C 
ATOM     47  CG2 ILE A   2      18.858  14.795  11.946  0.00  0.00    +0.002 C 
BRANCH  46  48
ATOM     48  CG1 ILE A   2      19.808  16.134  13.874  0.00  0.00    +0.002 C 
ATOM     49  CD1 ILE A   2      20.986  15.216  14.182  0.00  0.00    +0.000 C 
ENDBRANCH  46  48
ENDBRANCH  29  46
ENDBRANCH   1  29
TORSDOF 21
REMARK  Name = ../refined-set-2016/3ujc/3ujc_pocket.pdb
REMARK  163 active torsions:
REMARK  status: ('A' for Active; 'I' for Inactive)
REMARK    1  A    between atoms: _1  and  _3
REMARK    2  A    between atoms: _3  and  _4
REMARK    3  A    between atoms: _3  and  _6
REMARK    4  A    between atoms: _6  and  _7
REMARK    5  A    between atoms: _7  and  _8
REMARK    6  A    between atoms: _13  and  _15
REMARK    7  A    between atoms: _15  and  _16
REMARK    8  A    between atoms: _15  and  _18
REMARK    9  A    between atoms: _18  and  _19
REMARK   10  A    between atoms: _24  and  _25
REMARK   11  A    between atoms: _27  and  _29
REMARK   12  A    between atoms: _29  and  _30
REMARK   13  A    between atoms: _32  and  _34
REMARK   14  A    between atoms: _34  and  _35
REMARK   15  A    between atoms: _34  and  _37
REMARK   16  A    between atoms: _37  and  _38
REMARK   17  A    between atoms: _43  and  _44
REMARK   18  A    between atoms: _46  and  _48
REMARK   19  A    between atoms: _48  and  _49
REMARK   20  A    between atoms: _48  and  _51
REMARK   21  A    between atoms: _51  and  _52
REMARK   22  A    between atoms: _55  and  _57
REMARK   23  A    between atoms: _57  and  _58
REMARK   24  A    between atoms: _57  and  _60
REMARK   25  A    between atoms: _60  and  _61
REMARK   26  A    between atoms: _67  and  _69
REMARK   27  A    between atoms: _69  and  _70
REMARK   28  A    between atoms: _69  and  _72
REMARK   29  A    between atoms: _72  and  _73
REMARK   30  A    between atoms: _78  and  _79
REMARK   31  A    between atoms: _81  and  _83
REMARK   32  A    between atoms: _83  and  _84
REMARK   33  A    between atoms: _83  and  _86
REMARK   34  A    between atoms: _86  and  _87
REMARK   35  A    between atoms: _90  and  _92
REMARK   36  A    between atoms: _92  and  _93
REMARK   37  A    between atoms: _92  and  _95
REMARK   38  A    between atoms: _95  and  _96
REMARK   39  A    between atoms: _98  and  _100
REMARK   40  A    between atoms: _100  and  _101
REMARK   41  A    between atoms: _100  and  _103
REMARK   42  A    between atoms: _103  and  _104
REMARK   43  A    between atoms: _106  and  _108
REMARK   44  A    between atoms: _108  and  _109
REMARK   45  A    between atoms: _111  and  _113
REMARK   46  A    between atoms: _113  and  _114
REMARK   47  A    between atoms: _116  and  _118
REMARK   48  A    between atoms: _118  and  _119
REMARK   49  A    between atoms: _121  and  _123
REMARK   50  A    between atoms: _123  and  _124
REMARK   51  A    between atoms: _126  and  _128
REMARK   52  A    between atoms: _128  and  _129
REMARK   53  A    between atoms: _128  and  _131
REMARK   54  A    between atoms: _131  and  _132
REMARK   55  A    between atoms: _135  and  _137
REMARK   56  A    between atoms: _137  and  _138
REMARK   57  A    between atoms: _137  and  _140
REMARK   58  A    between atoms: _140  and  _141
REMARK   59  A    between atoms: _141  and  _142
REMARK   60  A    between atoms: _142  and  _143
REMARK   61  A    between atoms: _152  and  _154
REMARK   62  A    between atoms: _154  and  _155
REMARK   63  A    between atoms: _154  and  _157
REMARK   64  A    between atoms: _157  and  _158
REMARK   65  A    between atoms: _161  and  _163
REMARK   66  A    between atoms: _163  and  _164
REMARK   67  A    between atoms: _167  and  _169
REMARK   68  A    between atoms: _169  and  _170
REMARK   69  A    between atoms: _169  and  _172
REMARK   70  A    between atoms: _172  and  _173
REMARK   71  A    between atoms: _176  and  _178
REMARK   72  A    between atoms: _178  and  _179
REMARK   73  A    between atoms: _178  and  _181
REMARK   74  A    between atoms: _181  and  _182
REMARK   75  A    between atoms: _185  and  _187
REMARK   76  A    between atoms: _187  and  _188
REMARK   77  A    between atoms: _191  and  _193
REMARK   78  A    between atoms: _193  and  _194
REMARK   79  A    between atoms: _193  and  _196
REMARK   80  A    between atoms: _196  and  _197
REMARK   81  A    between atoms: _200  and  _202
REMARK   82  A    between atoms: _202  and  _203
REMARK   83  A    between atoms: _202  and  _205
REMARK   84  A    between atoms: _205  and  _206
REMARK   85  A    between atoms: _209  and  _211
REMARK   86  A    between atoms: _211  and  _212
REMARK   87  A    between atoms: _211  and  _214
REMARK   88  A    between atoms: _214  and  _215
REMARK   89  A    between atoms: _220  and  _221
REMARK   90  A    between atoms: _223  and  _225
REMARK   91  A    between atoms: _225  and  _226
REMARK   92  A    between atoms: _225  and  _228
REMARK   93  A    between atoms: _228  and  _229
REMARK   94  A    between atoms: _234  and  _235
REMARK   95  A    between atoms: _237  and  _239
REMARK   96  A    between atoms: _239  and  _240
REMARK   97  A    between atoms: _239  and  _242
REMARK   98  A    between atoms: _242  and  _243
REMARK   99  A    between atoms: _243  and  _244
REMARK  100  A    between atoms: _249  and  _251
REMARK  101  A    between atoms: _251  and  _252
REMARK  102  A    between atoms: _251  and  _254
REMARK  103  A    between atoms: _254  and  _255
REMARK  104  A    between atoms: _255  and  _256
REMARK  105  A    between atoms: _256  and  _257
REMARK  106  A    between atoms: _266  and  _268
REMARK  107  A    between atoms: _268  and  _269
REMARK  108  A    between atoms: _268  and  _271
REMARK  109  A    between atoms: _271  and  _272
REMARK  110  A    between atoms: _277  and  _278
REMARK  111  A    between atoms: _280  and  _282
REMARK  112  A    between atoms: _282  and  _283
REMARK  113  A    between atoms: _282  and  _285
REMARK  114  A    between atoms: _285  and  _286
REMARK  115  A    between atoms: _289  and  _291
REMARK  116  A    between atoms: _291  and  _292
REMARK  117  A    between atoms: _291  and  _294
REMARK  118  A    between atoms: _294  and  _295
REMARK  119  A    between atoms: _305  and  _307
REMARK  120  A    between atoms: _307  and  _308
REMARK  121  A    between atoms: _307  and  _310
REMARK  122  A    between atoms: _310  and  _311
REMARK  123  A    between atoms: _314  and  _316
REMARK  124  A    between atoms: _316  and  _317
REMARK  125  A    between atoms: _316  and  _319
REMARK  126  A    between atoms: _319  and  _320
REMARK  127  A    between atoms: _320  and  _321
REMARK  128  A    between atoms: _324  and  _326
REMARK  129  A    between atoms: _326  and  _327
REMARK  130  A    between atoms: _326  and  _329
REMARK  131  A    between atoms: _329  and  _330
REMARK  132  A    between atoms: _332  and  _334
REMARK  133  A    between atoms: _334  and  _335
REMARK  134  A    between atoms: _334  and  _337
REMARK  135  A    between atoms: _337  and  _338
REMARK  136  A    between atoms: _341  and  _343
REMARK  137  A    between atoms: _343  and  _344
REMARK  138  A    between atoms: _346  and  _348
REMARK  139  A    between atoms: _348  and  _349
REMARK  140  A    between atoms: _348  and  _351
REMARK  141  A    between atoms: _351  and  _352
REMARK  142  A    between atoms: _362  and  _364
REMARK  143  A    between atoms: _364  and  _365
REMARK  144  A    between atoms: _364  and  _367
REMARK  145  A    between atoms: _367  and  _368
REMARK  146  A    between atoms: _368  and  _369
REMARK  147  A    between atoms: _369  and  _370
REMARK  148  A    between atoms: _379  and  _381
REMARK  149  A    between atoms: _381  and  _382
REMARK  150  A    between atoms: _381  and  _384
REMARK  151  A    between atoms: _384  and  _385
REMARK  152  A    between atoms: _385  and  _386
REMARK  153  A    between atoms: _386  and  _387
REMARK  154  A    between atoms: _387  and  _388
REMARK  155  A    between atoms: _392  and  _394
REMARK  156  A    between atoms: _394  and  _395
REMARK  157  A    between atoms: _394  and  _397
REMARK  158  A    between atoms: _397  and  _398
REMARK  159  A    between atoms: _398  and  _399
REMARK  160  A    between atoms: _404  and  _406
REMARK  161  A    between atoms: _406  and  _407
REMARK  162  A    between atoms: _406  and  _409
REMARK  163  A    between atoms: _409  and  _410
REMARK                            x       y       z     vdW  Elec       q    Type
REMARK                         _______ _______ _______ _____ _____    ______ ____
ROOT
ATOM      1  CA  GLY A   1      25.337  20.056  17.673  0.00  0.00    +0.156 C 
ENDROOT
BRANCH   1   2
ATOM      2  N   GLY A   1      26.151  21.166  18.150  0.00  0.00    -0.238 NA
ATOM      3  H   GLY A   1      27.132  21.245  17.815  0.00  0.00    +0.142 HD
ENDBRANCH   1   2
BRANCH   1   4
ATOM      4  C   GLY A   1      24.509  20.480  16.474  0.00  0.00    +0.226 C 
ATOM      5  O   GLY A   1      23.290  20.337  16.453  0.00  0.00    -0.287 OA
ENDBRANCH   1   4
TORSDOF 2
REMARK  Name = ../refined-set-2016/3ujc/3ujc_pocket.pdb
REMARK  163 active torsions:
REMARK  status: ('A' for Active; 'I' for Inactive)
REMARK    1  A    between atoms: _1  and  _3
REMARK    2  A    between atoms: _3  and  _4
REMARK    3  A    between atoms: _3  and  _6
REMARK    4  A    between atoms: _6  and  _7
REMARK    5  A    between atoms: _7  and  _8
REMARK    6  A    between atoms: _13  and  _15
REMARK    7  A    between atoms: _15  and  _16
REMARK    8  A    between atoms: _15  and  _18
REMARK    9  A    between atoms: _18  and  _19
REMARK   10  A    between atoms: _24  and  _25
REMARK   11  A    between atoms: _27  and  _29
REMARK   12  A    between atoms: _29  and  _30
REMARK   13  A    between atoms: _32  and  _34
REMARK   14  A    between atoms: _34  and  _35
REMARK   15  A    between atoms: _34  and  _37
REMARK   16  A    between atoms: _37  and  _38
REMARK   17  A    between atoms: _43  and  _44
REMARK   18  A    between atoms: _46  and  _48
REMARK   19  A    between atoms: _48  and  _49
REMARK   20  A    between atoms: _48  and  _51
REMARK   21  A    between atoms: _51  and  _52
REMARK   22  A    between atoms: _55  and  _57
REMARK   23  A    between atoms: _57  and  _58
REMARK   24  A    between atoms: _57  and  _60
REMARK   25  A    between atoms: _60  and  _61
REMARK   26  A    between atoms: _67  and  _69
REMARK   27  A    between atoms: _69  and  _70
REMARK   28  A    between atoms: _69  and  _72
REMARK   29  A    between atoms: _72  and  _73
REMARK   30  A    between atoms: _78  and  _79
REMARK   31  A    between atoms: _81  and  _83
REMARK   32  A    between atoms: _83  and  _84
REMARK   33  A    between atoms: _83  and  _86
REMARK   34  A    between atoms: _86  and  _87
REMARK   35  A    between atoms: _90  and  _92
REMARK   36  A    between atoms: _92  and  _93
REMARK   37  A    between atoms: _92  and  _95
REMARK   38  A    between atoms: _95  and  _96
REMARK   39  A    between atoms: _98  and  _100
REMARK   40  A    between atoms: _100  and  _101
REMARK   41  A    between atoms: _100  and  _103
REMARK   42  A    between atoms: _103  and  _104
REMARK   43  A    between atoms: _106  and  _108
REMARK   44  A    between atoms: _108  and  _109
REMARK   45  A    between atoms: _111  and  _113
REMARK   46  A    between atoms: _113  and  _114
REMARK   47  A    between atoms: _116  and  _118
REMARK   48  A    between atoms: _118  and  _119
REMARK   49  A    between atoms: _121  and  _123
REMARK   50  A    between atoms: _123  and  _124
REMARK   51  A    between atoms: _126  and  _128
REMARK   52  A    between atoms: _128  and  _129
REMARK   53  A    between atoms: _128  and  _131
REMARK   54  A    between atoms: _131  and  _132
REMARK   55  A    between atoms: _135  and  _137
REMARK   56  A    between atoms: _137  and  _138
REMARK   57  A    between atoms: _137  and  _140
REMARK   58  A    between atoms: _140  and  _141
REMARK   59  A    between atoms: _141  and  _142
REMARK   60  A    between atoms: _142  and  _143
REMARK   61  A    between atoms: _152  and  _154
REMARK   62  A    between atoms: _154  and  _155
REMARK   63  A    between atoms: _154  and  _157
REMARK   64  A    between atoms: _157  and  _158
REMARK   65  A    between atoms: _161  and  _163
REMARK   66  A    between atoms: _163  and  _164
REMARK   67  A    between atoms: _167  and  _169
REMARK   68  A    between atoms: _169  and  _170
REMARK   69  A    between atoms: _169  and  _172
REMARK   70  A    between atoms: _172  and  _173
REMARK   71  A    between atoms: _176  and  _178
REMARK   72  A    between atoms: _178  and  _179
REMARK   73  A    between atoms: _178  and  _181
REMARK   74  A    between atoms: _181  and  _182
REMARK   75  A    between atoms: _185  and  _187
REMARK   76  A    between atoms: _187  and  _188
REMARK   77  A    between atoms: _191  and  _193
REMARK   78  A    between atoms: _193  and  _194
REMARK   79  A    between atoms: _193  and  _196
REMARK   80  A    between atoms: _196  and  _197
REMARK   81  A    between atoms: _200  and  _202
REMARK   82  A    between atoms: _202  and  _203
REMARK   83  A    between atoms: _202  and  _205
REMARK   84  A    between atoms: _205  and  _206
REMARK   85  A    between atoms: _209  and  _211
REMARK   86  A    between atoms: _211  and  _212
REMARK   87  A    between atoms: _211  and  _214
REMARK   88  A    between atoms: _214  and  _215
REMARK   89  A    between atoms: _220  and  _221
REMARK   90  A    between atoms: _223  and  _225
REMARK   91  A    between atoms: _225  and  _226
REMARK   92  A    between atoms: _225  and  _228
REMARK   93  A    between atoms: _228  and  _229
REMARK   94  A    between atoms: _234  and  _235
REMARK   95  A    between atoms: _237  and  _239
REMARK   96  A    between atoms: _239  and  _240
REMARK   97  A    between atoms: _239  and  _242
REMARK   98  A    between atoms: _242  and  _243
REMARK   99  A    between atoms: _243  and  _244
REMARK  100  A    between atoms: _249  and  _251
REMARK  101  A    between atoms: _251  and  _252
REMARK  102  A    between atoms: _251  and  _254
REMARK  103  A    between atoms: _254  and  _255
REMARK  104  A    between atoms: _255  and  _256
REMARK  105  A    between atoms: _256  and  _257
REMARK  106  A    between atoms: _266  and  _268
REMARK  107  A    between atoms: _268  and  _269
REMARK  108  A    between atoms: _268  and  _271
REMARK  109  A    between atoms: _271  and  _272
REMARK  110  A    between atoms: _277  and  _278
REMARK  111  A    between atoms: _280  and  _282
REMARK  112  A    between atoms: _282  and  _283
REMARK  113  A    between atoms: _282  and  _285
REMARK  114  A    between atoms: _285  and  _286
REMARK  115  A    between atoms: _289  and  _291
REMARK  116  A    between atoms: _291  and  _292
REMARK  117  A    between atoms: _291  and  _294
REMARK  118  A    between atoms: _294  and  _295
REMARK  119  A    between atoms: _305  and  _307
REMARK  120  A    between atoms: _307  and  _308
REMARK  121  A    between atoms: _307  and  _310
REMARK  122  A    between atoms: _310  and  _311
REMARK  123  A    between atoms: _314  and  _316
REMARK  124  A    between atoms: _316  and  _317
REMARK  125  A    between atoms: _316  and  _319
REMARK  126  A    between atoms: _319  and  _320
REMARK  127  A    between atoms: _320  and  _321
REMARK  128  A    between atoms: _324  and  _326
REMARK  129  A    between atoms: _326  and  _327
REMARK  130  A    between atoms: _326  and  _329
REMARK  131  A    between atoms: _329  and  _330
REMARK  132  A    between atoms: _332  and  _334
REMARK  133  A    between atoms: _334  and  _335
REMARK  134  A    between atoms: _334  and  _337
REMARK  135  A    between atoms: _337  and  _338
REMARK  136  A    between atoms: _341  and  _343
REMARK  137  A    between atoms: _343  and  _344
REMARK  138  A    between atoms: _346  and  _348
REMARK  139  A    between atoms: _348  and  _349
REMARK  140  A    between atoms: _348  and  _351
REMARK  141  A    between atoms: _351  and  _352
REMARK  142  A    between atoms: _362  and  _364
REMARK  143  A    between atoms: _364  and  _365
REMARK  144  A    between atoms: _364  and  _367
REMARK  145  A    between atoms: _367  and  _368
REMARK  146  A    between atoms: _368  and  _369
REMARK  147  A    between atoms: _369  and  _370
REMARK  148  A    between atoms: _379  and  _381
REMARK  149  A    between atoms: _381  and  _382
REMARK  150  A    between atoms: _381  and  _384
REMARK  151  A    between atoms: _384  and  _385
REMARK  152  A    between atoms: _385  and  _386
REMARK  153  A    between atoms: _386  and  _387
REMARK  154  A    between atoms: _387  and  _388
REMARK  155  A    between atoms: _392  and  _394
REMARK  156  A    between atoms: _394  and  _395
REMARK  157  A    between atoms: _394  and  _397
REMARK  158  A    between atoms: _397  and  _398
REMARK  159  A    between atoms: _398  and  _399
REMARK  160  A    between atoms: _404  and  _406
REMARK  161  A    between atoms: _406  and  _407
REMARK  162  A    between atoms: _406  and  _409
REMARK  163  A    between atoms: _409  and  _410
REMARK                            x       y       z     vdW  Elec       q    Type
REMARK                         _______ _______ _______ _____ _____    ______ ____
ROOT
ATOM      1  CA  GLY A   1      23.320  18.366  12.765  0.00  0.00    +0.156 C 
ENDROOT
BRANCH   1   2
ATOM      2  N   GLY A   1      24.071  19.371  13.500  0.00  0.00    -0.238 NA
ATOM      3  H   GLY A   1      24.846  19.072  14.126  0.00  0.00    +0.142 HD
ENDBRANCH   1   2
BRANCH   1   4
ATOM      4  C   GLY A   1      23.298  18.610  11.269  0.00  0.00    +0.226 C 
ATOM      5  O   GLY A   1      24.343  18.801  10.638  0.00  0.00    -0.287 OA
ENDBRANCH   1   4
TORSDOF 2
REMARK  Name = ../refined-set-2016/3ujc/3ujc_pocket.pdb
REMARK  163 active torsions:
REMARK  status: ('A' for Active; 'I' for Inactive)
REMARK    1  A    between atoms: _1  and  _3
REMARK    2  A    between atoms: _3  and  _4
REMARK    3  A    between atoms: _3  and  _6
REMARK    4  A    between atoms: _6  and  _7
REMARK    5  A    between atoms: _7  and  _8
REMARK    6  A    between atoms: _13  and  _15
REMARK    7  A    between atoms: _15  and  _16
REMARK    8  A    between atoms: _15  and  _18
REMARK    9  A    between atoms: _18  and  _19
REMARK   10  A    between atoms: _24  and  _25
REMARK   11  A    between atoms: _27  and  _29
REMARK   12  A    between atoms: _29  and  _30
REMARK   13  A    between atoms: _32  and  _34
REMARK   14  A    between atoms: _34  and  _35
REMARK   15  A    between atoms: _34  and  _37
REMARK   16  A    between atoms: _37  and  _38
REMARK   17  A    between atoms: _43  and  _44
REMARK   18  A    between atoms: _46  and  _48
REMARK   19  A    between atoms: _48  and  _49
REMARK   20  A    between atoms: _48  and  _51
REMARK   21  A    between atoms: _51  and  _52
REMARK   22  A    between atoms: _55  and  _57
REMARK   23  A    between atoms: _57  and  _58
REMARK   24  A    between atoms: _57  and  _60
REMARK   25  A    between atoms: _60  and  _61
REMARK   26  A    between atoms: _67  and  _69
REMARK   27  A    between atoms: _69  and  _70
REMARK   28  A    between atoms: _69  and  _72
REMARK   29  A    between atoms: _72  and  _73
REMARK   30  A    between atoms: _78  and  _79
REMARK   31  A    between atoms: _81  and  _83
REMARK   32  A    between atoms: _83  and  _84
REMARK   33  A    between atoms: _83  and  _86
REMARK   34  A    between atoms: _86  and  _87
REMARK   35  A    between atoms: _90  and  _92
REMARK   36  A    between atoms: _92  and  _93
REMARK   37  A    between atoms: _92  and  _95
REMARK   38  A    between atoms: _95  and  _96
REMARK   39  A    between atoms: _98  and  _100
REMARK   40  A    between atoms: _100  and  _101
REMARK   41  A    between atoms: _100  and  _103
REMARK   42  A    between atoms: _103  and  _104
REMARK   43  A    between atoms: _106  and  _108
REMARK   44  A    between atoms: _108  and  _109
REMARK   45  A    between atoms: _111  and  _113
REMARK   46  A    between atoms: _113  and  _114
REMARK   47  A    between atoms: _116  and  _118
REMARK   48  A    between atoms: _118  and  _119
REMARK   49  A    between atoms: _121  and  _123
REMARK   50  A    between atoms: _123  and  _124
REMARK   51  A    between atoms: _126  and  _128
REMARK   52  A    between atoms: _128  and  _129
REMARK   53  A    between atoms: _128  and  _131
REMARK   54  A    between atoms: _131  and  _132
REMARK   55  A    between atoms: _135  and  _137
REMARK   56  A    between atoms: _137  and  _138
REMARK   57  A    between atoms: _137  and  _140
REMARK   58  A    between atoms: _140  and  _141
REMARK   59  A    between atoms: _141  and  _142
REMARK   60  A    between atoms: _142  and  _143
REMARK   61  A    between atoms: _152  and  _154
REMARK   62  A    between atoms: _154  and  _155
REMARK   63  A    between atoms: _154  and  _157
REMARK   64  A    between atoms: _157  and  _158
REMARK   65  A    between atoms: _161  and  _163
REMARK   66  A    between atoms: _163  and  _164
REMARK   67  A    between atoms: _167  and  _169
REMARK   68  A    between atoms: _169  and  _170
REMARK   69  A    between atoms: _169  and  _172
REMARK   70  A    between atoms: _172  and  _173
REMARK   71  A    between atoms: _176  and  _178
REMARK   72  A    between atoms: _178  and  _179
REMARK   73  A    between atoms: _178  and  _181
REMARK   74  A    between atoms: _181  and  _182
REMARK   75  A    between atoms: _185  and  _187
REMARK   76  A    between atoms: _187  and  _188
REMARK   77  A    between atoms: _191  and  _193
REMARK   78  A    between atoms: _193  and  _194
REMARK   79  A    between atoms: _193  and  _196
REMARK   80  A    between atoms: _196  and  _197
REMARK   81  A    between atoms: _200  and  _202
REMARK   82  A    between atoms: _202  and  _203
REMARK   83  A    between atoms: _202  and  _205
REMARK   84  A    between atoms: _205  and  _206
REMARK   85  A    between atoms: _209  and  _211
REMARK   86  A    between atoms: _211  and  _212
REMARK   87  A    between atoms: _211  and  _214
REMARK   88  A    between atoms: _214  and  _215
REMARK   89  A    between atoms: _220  and  _221
REMARK   90  A    between atoms: _223  and  _225
REMARK   91  A    between atoms: _225  and  _226
REMARK   92  A    between atoms: _225  and  _228
REMARK   93  A    between atoms: _228  and  _229
REMARK   94  A    between atoms: _234  and  _235
REMARK   95  A    between atoms: _237  and  _239
REMARK   96  A    between atoms: _239  and  _240
REMARK   97  A    between atoms: _239  and  _242
REMARK   98  A    between atoms: _242  and  _243
REMARK   99  A    between atoms: _243  and  _244
REMARK  100  A    between atoms: _249  and  _251
REMARK  101  A    between atoms: _251  and  _252
REMARK  102  A    between atoms: _251  and  _254
REMARK  103  A    between atoms: _254  and  _255
REMARK  104  A    between atoms: _255  and  _256
REMARK  105  A    between atoms: _256  and  _257
REMARK  106  A    between atoms: _266  and  _268
REMARK  107  A    between atoms: _268  and  _269
REMARK  108  A    between atoms: _268  and  _271
REMARK  109  A    between atoms: _271  and  _272
REMARK  110  A    between atoms: _277  and  _278
REMARK  111  A    between atoms: _280  and  _282
REMARK  112  A    between atoms: _282  and  _283
REMARK  113  A    between atoms: _282  and  _285
REMARK  114  A    between atoms: _285  and  _286
REMARK  115  A    between atoms: _289  and  _291
REMARK  116  A    between atoms: _291  and  _292
REMARK  117  A    between atoms: _291  and  _294
REMARK  118  A    between atoms: _294  and  _295
REMARK  119  A    between atoms: _305  and  _307
REMARK  120  A    between atoms: _307  and  _308
REMARK  121  A    between atoms: _307  and  _310
REMARK  122  A    between atoms: _310  and  _311
REMARK  123  A    between atoms: _314  and  _316
REMARK  124  A    between atoms: _316  and  _317
REMARK  125  A    between atoms: _316  and  _319
REMARK  126  A    between atoms: _319  and  _320
REMARK  127  A    between atoms: _320  and  _321
REMARK  128  A    between atoms: _324  and  _326
REMARK  129  A    between atoms: _326  and  _327
REMARK  130  A    between atoms: _326  and  _329
REMARK  131  A    between atoms: _329  and  _330
REMARK  132  A    between atoms: _332  and  _334
REMARK  133  A    between atoms: _334  and  _335
REMARK  134  A    between atoms: _334  and  _337
REMARK  135  A    between atoms: _337  and  _338
REMARK  136  A    between atoms: _341  and  _343
REMARK  137  A    between atoms: _343  and  _344
REMARK  138  A    between atoms: _346  and  _348
REMARK  139  A    between atoms: _348  and  _349
REMARK  140  A    between atoms: _348  and  _351
REMARK  141  A    between atoms: _351  and  _352
REMARK  142  A    between atoms: _362  and  _364
REMARK  143  A    between atoms: _364  and  _365
REMARK  144  A    between atoms: _364  and  _367
REMARK  145  A    between atoms: _367  and  _368
REMARK  146  A    between atoms: _368  and  _369
REMARK  147  A    between atoms: _369  and  _370
REMARK  148  A    between atoms: _379  and  _381
REMARK  149  A    between atoms: _381  and  _382
REMARK  150  A    between atoms: _381  and  _384
REMARK  151  A    between atoms: _384  and  _385
REMARK  152  A    between atoms: _385  and  _386
REMARK  153  A    between atoms: _386  and  _387
REMARK  154  A    between atoms: _387  and  _388
REMARK  155  A    between atoms: _392  and  _394
REMARK  156  A    between atoms: _394  and  _395
REMARK  157  A    between atoms: _394  and  _397
REMARK  158  A    between atoms: _397  and  _398
REMARK  159  A    between atoms: _398  and  _399
REMARK  160  A    between atoms: _404  and  _406
REMARK  161  A    between atoms: _406  and  _407
REMARK  162  A    between atoms: _406  and  _409
REMARK  163  A    between atoms: _409  and  _410
REMARK                            x       y       z     vdW  Elec       q    Type
REMARK                         _______ _______ _______ _____ _____    ______ ____
ROOT
ATOM      1  CA  ASP A   1      29.026  18.451  15.388  0.00  0.00    +0.144 C 
ENDROOT
BRANCH   1   2
ATOM      2  N   ASP A   1      29.678  19.714  15.094  0.00  0.00    -0.239 NA
ATOM      3  H   ASP A   1      30.496  19.734  14.452  0.00  0.00    +0.142 HD
ENDBRANCH   1   2
BRANCH   1   4
ATOM      4  C   ASP A   1      30.118  17.389  15.383  0.00  0.00    +0.225 C 
ATOM      5  O   ASP A   1      31.061  17.469  14.595  0.00  0.00    -0.287 OA
ENDBRANCH   1   4
BRANCH   1   6
ATOM      6  CB  ASP A   1      27.940  18.181  14.346  0.00  0.00    +0.139 C 
BRANCH   6   7
ATOM      7  CG  ASP A   1      26.917  17.180  14.812  0.00  0.00    +0.367 C 
ATOM      8  OD2 ASP A   1      25.730  17.553  15.000  0.00  0.00    -0.246 OA
ATOM      9  OD1 ASP A   1      27.305  16.001  14.950  0.00  0.00    -0.246 OA
ENDBRANCH   6   7
ENDBRANCH   1   6
TORSDOF 4
REMARK  Name = ../refined-set-2016/3ujc/3ujc_pocket.pdb
REMARK  163 active torsions:
REMARK  status: ('A' for Active; 'I' for Inactive)
REMARK    1  A    between atoms: _1  and  _3
REMARK    2  A    between atoms: _3  and  _4
REMARK    3  A    between atoms: _3  and  _6
REMARK    4  A    between atoms: _6  and  _7
REMARK    5  A    between atoms: _7  and  _8
REMARK    6  A    between atoms: _13  and  _15
REMARK    7  A    between atoms: _15  and  _16
REMARK    8  A    between atoms: _15  and  _18
REMARK    9  A    between atoms: _18  and  _19
REMARK   10  A    between atoms: _24  and  _25
REMARK   11  A    between atoms: _27  and  _29
REMARK   12  A    between atoms: _29  and  _30
REMARK   13  A    between atoms: _32  and  _34
REMARK   14  A    between atoms: _34  and  _35
REMARK   15  A    between atoms: _34  and  _37
REMARK   16  A    between atoms: _37  and  _38
REMARK   17  A    between atoms: _43  and  _44
REMARK   18  A    between atoms: _46  and  _48
REMARK   19  A    between atoms: _48  and  _49
REMARK   20  A    between atoms: _48  and  _51
REMARK   21  A    between atoms: _51  and  _52
REMARK   22  A    between atoms: _55  and  _57
REMARK   23  A    between atoms: _57  and  _58
REMARK   24  A    between atoms: _57  and  _60
REMARK   25  A    between atoms: _60  and  _61
REMARK   26  A    between atoms: _67  and  _69
REMARK   27  A    between atoms: _69  and  _70
REMARK   28  A    between atoms: _69  and  _72
REMARK   29  A    between atoms: _72  and  _73
REMARK   30  A    between atoms: _78  and  _79
REMARK   31  A    between atoms: _81  and  _83
REMARK   32  A    between atoms: _83  and  _84
REMARK   33  A    between atoms: _83  and  _86
REMARK   34  A    between atoms: _86  and  _87
REMARK   35  A    between atoms: _90  and  _92
REMARK   36  A    between atoms: _92  and  _93
REMARK   37  A    between atoms: _92  and  _95
REMARK   38  A    between atoms: _95  and  _96
REMARK   39  A    between atoms: _98  and  _100
REMARK   40  A    between atoms: _100  and  _101
REMARK   41  A    between atoms: _100  and  _103
REMARK   42  A    between atoms: _103  and  _104
REMARK   43  A    between atoms: _106  and  _108
REMARK   44  A    between atoms: _108  and  _109
REMARK   45  A    between atoms: _111  and  _113
REMARK   46  A    between atoms: _113  and  _114
REMARK   47  A    between atoms: _116  and  _118
REMARK   48  A    between atoms: _118  and  _119
REMARK   49  A    between atoms: _121  and  _123
REMARK   50  A    between atoms: _123  and  _124
REMARK   51  A    between atoms: _126  and  _128
REMARK   52  A    between atoms: _128  and  _129
REMARK   53  A    between atoms: _128  and  _131
REMARK   54  A    between atoms: _131  and  _132
REMARK   55  A    between atoms: _135  and  _137
REMARK   56  A    between atoms: _137  and  _138
REMARK   57  A    between atoms: _137  and  _140
REMARK   58  A    between atoms: _140  and  _141
REMARK   59  A    between atoms: _141  and  _142
REMARK   60  A    between atoms: _142  and  _143
REMARK   61  A    between atoms: _152  and  _154
REMARK   62  A    between atoms: _154  and  _155
REMARK   63  A    between atoms: _154  and  _157
REMARK   64  A    between atoms: _157  and  _158
REMARK   65  A    between atoms: _161  and  _163
REMARK   66  A    between atoms: _163  and  _164
REMARK   67  A    between atoms: _167  and  _169
REMARK   68  A    between atoms: _169  and  _170
REMARK   69  A    between atoms: _169  and  _172
REMARK   70  A    between atoms: _172  and  _173
REMARK   71  A    between atoms: _176  and  _178
REMARK   72  A    between atoms: _178  and  _179
REMARK   73  A    between atoms: _178  and  _181
REMARK   74  A    between atoms: _181  and  _182
REMARK   75  A    between atoms: _185  and  _187
REMARK   76  A    between atoms: _187  and  _188
REMARK   77  A    between atoms: _191  and  _193
REMARK   78  A    between atoms: _193  and  _194
REMARK   79  A    between atoms: _193  and  _196
REMARK   80  A    between atoms: _196  and  _197
REMARK   81  A    between atoms: _200  and  _202
REMARK   82  A    between atoms: _202  and  _203
REMARK   83  A    between atoms: _202  and  _205
REMARK   84  A    between atoms: _205  and  _206
REMARK   85  A    between atoms: _209  and  _211
REMARK   86  A    between atoms: _211  and  _212
REMARK   87  A    between atoms: _211  and  _214
REMARK   88  A    between atoms: _214  and  _215
REMARK   89  A    between atoms: _220  and  _221
REMARK   90  A    between atoms: _223  and  _225
REMARK   91  A    between atoms: _225  and  _226
REMARK   92  A    between atoms: _225  and  _228
REMARK   93  A    between atoms: _228  and  _229
REMARK   94  A    between atoms: _234  and  _235
REMARK   95  A    between atoms: _237  and  _239
REMARK   96  A    between atoms: _239  and  _240
REMARK   97  A    between atoms: _239  and  _242
REMARK   98  A    between atoms: _242  and  _243
REMARK   99  A    between atoms: _243  and  _244
REMARK  100  A    between atoms: _249  and  _251
REMARK  101  A    between atoms: _251  and  _252
REMARK  102  A    between atoms: _251  and  _254
REMARK  103  A    between atoms: _254  and  _255
REMARK  104  A    between atoms: _255  and  _256
REMARK  105  A    between atoms: _256  and  _257
REMARK  106  A    between atoms: _266  and  _268
REMARK  107  A    between atoms: _268  and  _269
REMARK  108  A    between atoms: _268  and  _271
REMARK  109  A    between atoms: _271  and  _272
REMARK  110  A    between atoms: _277  and  _278
REMARK  111  A    between atoms: _280  and  _282
REMARK  112  A    between atoms: _282  and  _283
REMARK  113  A    between atoms: _282  and  _285
REMARK  114  A    between atoms: _285  and  _286
REMARK  115  A    between atoms: _289  and  _291
REMARK  116  A    between atoms: _291  and  _292
REMARK  117  A    between atoms: _291  and  _294
REMARK  118  A    between atoms: _294  and  _295
REMARK  119  A    between atoms: _305  and  _307
REMARK  120  A    between atoms: _307  and  _308
REMARK  121  A    between atoms: _307  and  _310
REMARK  122  A    between atoms: _310  and  _311
REMARK  123  A    between atoms: _314  and  _316
REMARK  124  A    between atoms: _316  and  _317
REMARK  125  A    between atoms: _316  and  _319
REMARK  126  A    between atoms: _319  and  _320
REMARK  127  A    between atoms: _320  and  _321
REMARK  128  A    between atoms: _324  and  _326
REMARK  129  A    between atoms: _326  and  _327
REMARK  130  A    between atoms: _326  and  _329
REMARK  131  A    between atoms: _329  and  _330
REMARK  132  A    between atoms: _332  and  _334
REMARK  133  A    between atoms: _334  and  _335
REMARK  134  A    between atoms: _334  and  _337
REMARK  135  A    between atoms: _337  and  _338
REMARK  136  A    between atoms: _341  and  _343
REMARK  137  A    between atoms: _343  and  _344
REMARK  138  A    between atoms: _346  and  _348
REMARK  139  A    between atoms: _348  and  _349
REMARK  140  A    between atoms: _348  and  _351
REMARK  141  A    between atoms: _351  and  _352
REMARK  142  A    between atoms: _362  and  _364
REMARK  143  A    between atoms: _364  and  _365
REMARK  144  A    between atoms: _364  and  _367
REMARK  145  A    between atoms: _367  and  _368
REMARK  146  A    between atoms: _368  and  _369
REMARK  147  A    between atoms: _369  and  _370
REMARK  148  A    between atoms: _379  and  _381
REMARK  149  A    between atoms: _381  and  _382
REMARK  150  A    between atoms: _381  and  _384
REMARK  151  A    between atoms: _384  and  _385
REMARK  152  A    between atoms: _385  and  _386
REMARK  153  A    between atoms: _386  and  _387
REMARK  154  A    between atoms: _387  and  _388
REMARK  155  A    between atoms: _392  and  _394
REMARK  156  A    between atoms: _394  and  _395
REMARK  157  A    between atoms: _394  and  _397
REMARK  158  A    between atoms: _397  and  _398
REMARK  159  A    between atoms: _398  and  _399
REMARK  160  A    between atoms: _404  and  _406
REMARK  161  A    between atoms: _406  and  _407
REMARK  162  A    between atoms: _406  and  _409
REMARK  163  A    between atoms: _409  and  _410
REMARK                            x       y       z     vdW  Elec       q    Type
REMARK                         _______ _______ _______ _____ _____    ______ ____
ROOT
ATOM      1  C   ASP A   2      19.973  17.978  21.312  0.00  0.00    +0.241 C 
ATOM      2  N   ALA A   3      21.110  18.466  21.816  0.00  0.00    -0.297 N 
ATOM      3  H   ALA A   3      21.059  19.289  22.450  0.00  0.00    +0.150 HD
ATOM      4  O   ASP A   2      19.906  16.930  20.663  0.00  0.00    -0.273 OA
ENDROOT
BRANCH   2   5
ATOM      5  CA  ALA A   3      22.422  17.897  21.518  0.00  0.00    +0.149 C 
ATOM      6  CB  ALA A   3      23.214  18.841  20.618  0.00  0.00    +0.031 C 
BRANCH   5   7
ATOM      7  C   ALA A   3      23.228  17.591  22.784  0.00  0.00    +0.241 C 
ATOM      8  N   ILE A   4      22.992  18.338  23.858  0.00  0.00    -0.297 N 
ATOM      9  H   ILE A   4      22.195  19.006  23.852  0.00  0.00    +0.150 HD
ATOM     10  O   ALA A   3      24.068  16.695  22.789  0.00  0.00    -0.273 OA
BRANCH   8  11
ATOM     11  CA  ILE A   4      23.831  18.237  25.042  0.00  0.00    +0.149 C 
BRANCH  11  12
ATOM     12  C   ILE A   4      23.468  17.007  25.904  0.00  0.00    +0.241 C 
ATOM     13  O   ILE A   4      24.264  16.561  26.734  0.00  0.00    -0.273 OA
ATOM     14  N   LEU A   5      22.308  16.413  25.629  0.00  0.00    -0.297 N 
ATOM     15  H   LEU A   5      21.674  16.855  24.933  0.00  0.00    +0.150 HD
BRANCH  14  16
ATOM     16  CA  LEU A   5      21.888  15.162  26.266  0.00  0.00    +0.149 C 
BRANCH  16  17
ATOM     17  C   LEU A   5      22.913  14.027  26.115  0.00  0.00    +0.241 C 
ATOM     18  O   LEU A   5      22.939  13.085  26.916  0.00  0.00    -0.273 OA
ATOM     19  N   ALA A   6      23.746  14.091  25.078  0.00  0.00    -0.298 N 
ATOM     20  H   ALA A   6      23.688  14.902  24.429  0.00  0.00    +0.150 HD
BRANCH  19  21
ATOM     21  CA  ALA A   6      24.741  13.046  24.831  0.00  0.00    +0.137 C 
ATOM     22  CB  ALA A   6      25.239  13.117  23.384  0.00  0.00    +0.030 C 
BRANCH  21  23
ATOM     23  C   ALA A   6      25.918  13.126  25.797  0.00  0.00    +0.227 C 
ATOM     24  O   ALA A   6      26.676  12.168  25.934  0.00  0.00    -0.286 OA
ENDBRANCH  21  23
ENDBRANCH  19  21
ENDBRANCH  16  17
BRANCH  16  25
ATOM     25  CB  LEU A   5      20.539  14.700  25.701  0.00  0.00    +0.029 C 
BRANCH  25  26
ATOM     26  CG  LEU A   5      20.487  14.141  24.270  0.00  0.00    +0.002 C 
ATOM     27  CD2 LEU A   5      19.084  13.677  23.940  0.00  0.00    +0.000 C 
ATOM     28  CD1 LEU A   5      20.963  15.137  23.212  0.00  0.00    +0.000 C 
ENDBRANCH  25  26
ENDBRANCH  16  25
ENDBRANCH  14  16
ENDBRANCH  11  12
BRANCH  11  29
ATOM     29  CB  ILE A   4      23.886  19.606  25.768  0.00  0.00    +0.027 C 
ATOM     30  CG2 ILE A   4      24.506  19.495  27.160  0.00  0.00    +0.002 C 
BRANCH  29  31
ATOM     31  CG1 ILE A   4      24.673  20.580  24.877  0.00  0.00    +0.002 C 
ATOM     32  CD1 ILE A   4      24.528  22.046  25.238  0.00  0.00    +0.000 C 
ENDBRANCH  29  31
ENDBRANCH  11  29
ENDBRANCH   8  11
ENDBRANCH   5   7
ENDBRANCH   2   5
BRANCH   1  33
ATOM     33  CA  ASP A   2      18.707  18.771  21.633  0.00  0.00    +0.160 C 
BRANCH  33  35
ATOM     34  C   ARG A   1      19.284  20.694  20.232  0.00  0.00    +0.238 C 
ATOM     35  N   ASP A   2      18.878  20.203  21.404  0.00  0.00    -0.297 N 
ATOM     36  H   ASP A   2      18.676  20.863  22.182  0.00  0.00    +0.150 HD
ATOM     37  O   ARG A   1      19.692  19.989  19.305  0.00  0.00    -0.274 OA
BRANCH  34  38
ATOM     38  CA  ARG A   1      19.201  22.207  20.070  0.00  0.00    +0.145 C 
BRANCH  38  39
ATOM     39  N   ARG A   1      20.518  22.819  20.172  0.00  0.00    -0.238 NA
ATOM     40  H   ARG A   1      21.266  22.511  19.519  0.00  0.00    +0.142 HD
ENDBRANCH  38  39
BRANCH  38  41
ATOM     41  CB  ARG A   1      18.554  22.552  18.720  0.00  0.00    +0.030 C 
BRANCH  41  42
ATOM     42  CG  ARG A   1      18.264  24.055  18.532  0.00  0.00    +0.045 C 
BRANCH  42  43
ATOM     43  CD  ARG A   1      17.138  24.539  19.480  0.00  0.00    +0.174 C 
BRANCH  43  44
ATOM     44  NE  ARG A   1      16.151  23.472  19.597  0.00  0.00    -0.265 N 
ATOM     45  HE  ARG A   1      16.105  22.958  20.500  0.00  0.00    +0.259 HD
ATOM     46  CZ  ARG A   1      15.306  23.106  18.639  0.00  0.00    +0.342 C 
ATOM     47  NH2 ARG A   1      14.529  22.048  18.834  0.00  0.00    -0.292 N 
ATOM     48 HH21 ARG A   1      14.587  21.518  19.727  0.00  0.00    +0.255 HD
ATOM     49 HH22 ARG A   1      13.862  21.749  18.094  0.00  0.00    +0.255 HD
ATOM     50  NH1 ARG A   1      15.227  23.796  17.499  0.00  0.00    -0.292 N 
ATOM     51 HH11 ARG A   1      15.831  24.630  17.353  0.00  0.00    +0.255 HD
ATOM     52 HH12 ARG A   1      14.562  23.499  16.757  0.00  0.00    +0.255 HD
ENDBRANCH  43  44
ENDBRANCH  42  43
ENDBRANCH  41  42
ENDBRANCH  38  41
ENDBRANCH  34  38
ENDBRANCH  33  35
BRANCH  33  53
ATOM     53  CB  ASP A   2      17.497  18.250  20.843  0.00  0.00    +0.143 C 
BRANCH  53  54
ATOM     54  CG  ASP A   2      16.240  19.064  21.102  0.00  0.00    +0.367 C 
ATOM     55  OD2 ASP A   2      16.116  19.659  22.197  0.00  0.00    -0.246 OA
ATOM     56  OD1 ASP A   2      15.378  19.121  20.200  0.00  0.00    -0.246 OA
ENDBRANCH  53  54
ENDBRANCH  33  53
ENDBRANCH   1  33
TORSDOF 22
REMARK  Name = ../refined-set-2016/3ujc/3ujc_pocket.pdb
REMARK  163 active torsions:
REMARK  status: ('A' for Active; 'I' for Inactive)
REMARK    1  A    between atoms: _1  and  _3
REMARK    2  A    between atoms: _3  and  _4
REMARK    3  A    between atoms: _3  and  _6
REMARK    4  A    between atoms: _6  and  _7
REMARK    5  A    between atoms: _7  and  _8
REMARK    6  A    between atoms: _13  and  _15
REMARK    7  A    between atoms: _15  and  _16
REMARK    8  A    between atoms: _15  and  _18
REMARK    9  A    between atoms: _18  and  _19
REMARK   10  A    between atoms: _24  and  _25
REMARK   11  A    between atoms: _27  and  _29
REMARK   12  A    between atoms: _29  and  _30
REMARK   13  A    between atoms: _32  and  _34
REMARK   14  A    between atoms: _34  and  _35
REMARK   15  A    between atoms: _34  and  _37
REMARK   16  A    between atoms: _37  and  _38
REMARK   17  A    between atoms: _43  and  _44
REMARK   18  A    between atoms: _46  and  _48
REMARK   19  A    between atoms: _48  and  _49
REMARK   20  A    between atoms: _48  and  _51
REMARK   21  A    between atoms: _51  and  _52
REMARK   22  A    between atoms: _55  and  _57
REMARK   23  A    between atoms: _57  and  _58
REMARK   24  A    between atoms: _57  and  _60
REMARK   25  A    between atoms: _60  and  _61
REMARK   26  A    between atoms: _67  and  _69
REMARK   27  A    between atoms: _69  and  _70
REMARK   28  A    between atoms: _69  and  _72
REMARK   29  A    between atoms: _72  and  _73
REMARK   30  A    between atoms: _78  and  _79
REMARK   31  A    between atoms: _81  and  _83
REMARK   32  A    between atoms: _83  and  _84
REMARK   33  A    between atoms: _83  and  _86
REMARK   34  A    between atoms: _86  and  _87
REMARK   35  A    between atoms: _90  and  _92
REMARK   36  A    between atoms: _92  and  _93
REMARK   37  A    between atoms: _92  and  _95
REMARK   38  A    between atoms: _95  and  _96
REMARK   39  A    between atoms: _98  and  _100
REMARK   40  A    between atoms: _100  and  _101
REMARK   41  A    between atoms: _100  and  _103
REMARK   42  A    between atoms: _103  and  _104
REMARK   43  A    between atoms: _106  and  _108
REMARK   44  A    between atoms: _108  and  _109
REMARK   45  A    between atoms: _111  and  _113
REMARK   46  A    between atoms: _113  and  _114
REMARK   47  A    between atoms: _116  and  _118
REMARK   48  A    between atoms: _118  and  _119
REMARK   49  A    between atoms: _121  and  _123
REMARK   50  A    between atoms: _123  and  _124
REMARK   51  A    between atoms: _126  and  _128
REMARK   52  A    between atoms: _128  and  _129
REMARK   53  A    between atoms: _128  and  _131
REMARK   54  A    between atoms: _131  and  _132
REMARK   55  A    between atoms: _135  and  _137
REMARK   56  A    between atoms: _137  and  _138
REMARK   57  A    between atoms: _137  and  _140
REMARK   58  A    between atoms: _140  and  _141
REMARK   59  A    between atoms: _141  and  _142
REMARK   60  A    between atoms: _142  and  _143
REMARK   61  A    between atoms: _152  and  _154
REMARK   62  A    between atoms: _154  and  _155
REMARK   63  A    between atoms: _154  and  _157
REMARK   64  A    between atoms: _157  and  _158
REMARK   65  A    between atoms: _161  and  _163
REMARK   66  A    between atoms: _163  and  _164
REMARK   67  A    between atoms: _167  and  _169
REMARK   68  A    between atoms: _169  and  _170
REMARK   69  A    between atoms: _169  and  _172
REMARK   70  A    between atoms: _172  and  _173
REMARK   71  A    between atoms: _176  and  _178
REMARK   72  A    between atoms: _178  and  _179
REMARK   73  A    between atoms: _178  and  _181
REMARK   74  A    between atoms: _181  and  _182
REMARK   75  A    between atoms: _185  and  _187
REMARK   76  A    between atoms: _187  and  _188
REMARK   77  A    between atoms: _191  and  _193
REMARK   78  A    between atoms: _193  and  _194
REMARK   79  A    between atoms: _193  and  _196
REMARK   80  A    between atoms: _196  and  _197
REMARK   81  A    between atoms: _200  and  _202
REMARK   82  A    between atoms: _202  and  _203
REMARK   83  A    between atoms: _202  and  _205
REMARK   84  A    between atoms: _205  and  _206
REMARK   85  A    between atoms: _209  and  _211
REMARK   86  A    between atoms: _211  and  _212
REMARK   87  A    between atoms: _211  and  _214
REMARK   88  A    between atoms: _214  and  _215
REMARK   89  A    between atoms: _220  and  _221
REMARK   90  A    between atoms: _223  and  _225
REMARK   91  A    between atoms: _225  and  _226
REMARK   92  A    between atoms: _225  and  _228
REMARK   93  A    between atoms: _228  and  _229
REMARK   94  A    between atoms: _234  and  _235
REMARK   95  A    between atoms: _237  and  _239
REMARK   96  A    between atoms: _239  and  _240
REMARK   97  A    between atoms: _239  and  _242
REMARK   98  A    between atoms: _242  and  _243
REMARK   99  A    between atoms: _243  and  _244
REMARK  100  A    between atoms: _249  and  _251
REMARK  101  A    between atoms: _251  and  _252
REMARK  102  A    between atoms: _251  and  _254
REMARK  103  A    between atoms: _254  and  _255
REMARK  104  A    between atoms: _255  and  _256
REMARK  105  A    between atoms: _256  and  _257
REMARK  106  A    between atoms: _266  and  _268
REMARK  107  A    between atoms: _268  and  _269
REMARK  108  A    between atoms: _268  and  _271
REMARK  109  A    between atoms: _271  and  _272
REMARK  110  A    between atoms: _277  and  _278
REMARK  111  A    between atoms: _280  and  _282
REMARK  112  A    between atoms: _282  and  _283
REMARK  113  A    between atoms: _282  and  _285
REMARK  114  A    between atoms: _285  and  _286
REMARK  115  A    between atoms: _289  and  _291
REMARK  116  A    between atoms: _291  and  _292
REMARK  117  A    between atoms: _291  and  _294
REMARK  118  A    between atoms: _294  and  _295
REMARK  119  A    between atoms: _305  and  _307
REMARK  120  A    between atoms: _307  and  _308
REMARK  121  A    between atoms: _307  and  _310
REMARK  122  A    between atoms: _310  and  _311
REMARK  123  A    between atoms: _314  and  _316
REMARK  124  A    between atoms: _316  and  _317
REMARK  125  A    between atoms: _316  and  _319
REMARK  126  A    between atoms: _319  and  _320
REMARK  127  A    between atoms: _320  and  _321
REMARK  128  A    between atoms: _324  and  _326
REMARK  129  A    between atoms: _326  and  _327
REMARK  130  A    between atoms: _326  and  _329
REMARK  131  A    between atoms: _329  and  _330
REMARK  132  A    between atoms: _332  and  _334
REMARK  133  A    between atoms: _334  and  _335
REMARK  134  A    between atoms: _334  and  _337
REMARK  135  A    between atoms: _337  and  _338
REMARK  136  A    between atoms: _341  and  _343
REMARK  137  A    between atoms: _343  and  _344
REMARK  138  A    between atoms: _346  and  _348
REMARK  139  A    between atoms: _348  and  _349
REMARK  140  A    between atoms: _348  and  _351
REMARK  141  A    between atoms: _351  and  _352
REMARK  142  A    between atoms: _362  and  _364
REMARK  143  A    between atoms: _364  and  _365
REMARK  144  A    between atoms: _364  and  _367
REMARK  145  A    between atoms: _367  and  _368
REMARK  146  A    between atoms: _368  and  _369
REMARK  147  A    between atoms: _369  and  _370
REMARK  148  A    between atoms: _379  and  _381
REMARK  149  A    between atoms: _381  and  _382
REMARK  150  A    between atoms: _381  and  _384
REMARK  151  A    between atoms: _384  and  _385
REMARK  152  A    between atoms: _385  and  _386
REMARK  153  A    between atoms: _386  and  _387
REMARK  154  A    between atoms: _387  and  _388
REMARK  155  A    between atoms: _392  and  _394
REMARK  156  A    between atoms: _394  and  _395
REMARK  157  A    between atoms: _394  and  _397
REMARK  158  A    between atoms: _397  and  _398
REMARK  159  A    between atoms: _398  and  _399
REMARK  160  A    between atoms: _404  and  _406
REMARK  161  A    between atoms: _406  and  _407
REMARK  162  A    between atoms: _406  and  _409
REMARK  163  A    between atoms: _409  and  _410
REMARK                            x       y       z     vdW  Elec       q    Type
REMARK                         _______ _______ _______ _____ _____    ______ ____
ROOT
ATOM      1  CA  ASP A   2      17.600  19.809  25.519  0.00  0.00    +0.160 C 
ENDROOT
BRANCH   1   3
ATOM      2  C   THR A   1      17.524  21.941  24.440  0.00  0.00    +0.241 C 
ATOM      3  N   ASP A   2      16.981  21.105  25.311  0.00  0.00    -0.297 N 
ATOM      4  H   ASP A   2      16.125  21.373  25.838  0.00  0.00    +0.150 HD
ATOM      5  O   THR A   1      18.552  21.669  23.801  0.00  0.00    -0.274 OA
BRANCH   2   6
ATOM      6  CA  THR A   1      16.820  23.273  24.260  0.00  0.00    +0.172 C 
BRANCH   6   7
ATOM      7  N   THR A   1      17.844  24.249  23.875  0.00  0.00    -0.236 NA
ATOM      8  H   THR A   1      18.386  24.125  22.996  0.00  0.00    +0.142 HD
ENDBRANCH   6   7
BRANCH   6   9
ATOM      9  CB  THR A   1      15.641  23.105  23.279  0.00  0.00    +0.135 C 
ATOM     10  CG2 THR A   1      15.019  24.442  22.939  0.00  0.00    +0.034 C 
BRANCH   9  11
ATOM     11  OG1 THR A   1      16.078  22.453  22.083  0.00  0.00    -0.383 OA
ATOM     12  HG1 THR A   1      16.440  21.560  22.309  0.00  0.00    +0.210 HD
ENDBRANCH   9  11
ENDBRANCH   6   9
ENDBRANCH   2   6
ENDBRANCH   1   3
BRANCH   1  13
ATOM     13  C   ASP A   2      16.600  18.835  26.109  0.00  0.00    +0.241 C 
ATOM     14  O   ASP A   2      15.638  19.232  26.782  0.00  0.00    -0.273 OA
ATOM     15  N   TYR A   3      16.837  17.552  25.858  0.00  0.00    -0.298 N 
ATOM     16  H   TYR A   3      17.598  17.292  25.199  0.00  0.00    +0.150 HD
BRANCH  15  17
ATOM     17  CA  TYR A   3      16.052  16.507  26.488  0.00  0.00    +0.141 C 
BRANCH  17  18
ATOM     18  C   TYR A   3      16.405  16.469  27.965  0.00  0.00    +0.227 C 
ATOM     19  O   TYR A   3      17.587  16.427  28.329  0.00  0.00    -0.286 OA
ENDBRANCH  17  18
BRANCH  17  20
ATOM     20  CB  TYR A   3      16.385  15.142  25.888  0.00  0.00    +0.054 C 
BRANCH  20  21
ATOM     21  CG  TYR A   3      15.813  14.847  24.515  0.00  0.00    -0.020 A 
ATOM     22  CD2 TYR A   3      15.721  13.531  24.072  0.00  0.00    -0.001 A 
ATOM     23  CE2 TYR A   3      15.210  13.220  22.837  0.00  0.00    +0.036 A 
ATOM     24  CZ  TYR A   3      14.755  14.229  22.012  0.00  0.00    +0.134 A 
ATOM     25  CE1 TYR A   3      14.809  15.557  22.423  0.00  0.00    +0.036 A 
ATOM     26  CD1 TYR A   3      15.341  15.858  23.679  0.00  0.00    -0.001 A 
BRANCH  24  27
ATOM     27  OH  TYR A   3      14.220  13.885  20.791  0.00  0.00    -0.506 OA
ATOM     28  HH  TYR A   3      13.436  13.297  20.930  0.00  0.00    +0.292 HD
ENDBRANCH  24  27
ENDBRANCH  20  21
ENDBRANCH  17  20
ENDBRANCH  15  17
ENDBRANCH   1  13
BRANCH   1  29
ATOM     29  CB  ASP A   2      18.831  19.947  26.422  0.00  0.00    +0.143 C 
BRANCH  29  30
ATOM     30  CG  ASP A   2      19.906  18.898  26.140  0.00  0.00    +0.367 C 
ATOM     31  OD2 ASP A   2      20.959  18.986  26.811  0.00  0.00    -0.246 OA
ATOM     32  OD1 ASP A   2      19.724  18.000  25.276  0.00  0.00    -0.246 OA
ENDBRANCH  29  30
ENDBRANCH   1  29
TORSDOF 13
REMARK  Name = ../refined-set-2016/3ujc/3ujc_pocket.pdb
REMARK  163 active torsions:
REMARK  status: ('A' for Active; 'I' for Inactive)
REMARK    1  A    between atoms: _1  and  _3
REMARK    2  A    between atoms: _3  and  _4
REMARK    3  A    between atoms: _3  and  _6
REMARK    4  A    between atoms: _6  and  _7
REMARK    5  A    between atoms: _7  and  _8
REMARK    6  A    between atoms: _13  and  _15
REMARK    7  A    between atoms: _15  and  _16
REMARK    8  A    between atoms: _15  and  _18
REMARK    9  A    between atoms: _18  and  _19
REMARK   10  A    between atoms: _24  and  _25
REMARK   11  A    between atoms: _27  and  _29
REMARK   12  A    between atoms: _29  and  _30
REMARK   13  A    between atoms: _32  and  _34
REMARK   14  A    between atoms: _34  and  _35
REMARK   15  A    between atoms: _34  and  _37
REMARK   16  A    between atoms: _37  and  _38
REMARK   17  A    between atoms: _43  and  _44
REMARK   18  A    between atoms: _46  and  _48
REMARK   19  A    between atoms: _48  and  _49
REMARK   20  A    between atoms: _48  and  _51
REMARK   21  A    between atoms: _51  and  _52
REMARK   22  A    between atoms: _55  and  _57
REMARK   23  A    between atoms: _57  and  _58
REMARK   24  A    between atoms: _57  and  _60
REMARK   25  A    between atoms: _60  and  _61
REMARK   26  A    between atoms: _67  and  _69
REMARK   27  A    between atoms: _69  and  _70
REMARK   28  A    between atoms: _69  and  _72
REMARK   29  A    between atoms: _72  and  _73
REMARK   30  A    between atoms: _78  and  _79
REMARK   31  A    between atoms: _81  and  _83
REMARK   32  A    between atoms: _83  and  _84
REMARK   33  A    between atoms: _83  and  _86
REMARK   34  A    between atoms: _86  and  _87
REMARK   35  A    between atoms: _90  and  _92
REMARK   36  A    between atoms: _92  and  _93
REMARK   37  A    between atoms: _92  and  _95
REMARK   38  A    between atoms: _95  and  _96
REMARK   39  A    between atoms: _98  and  _100
REMARK   40  A    between atoms: _100  and  _101
REMARK   41  A    between atoms: _100  and  _103
REMARK   42  A    between atoms: _103  and  _104
REMARK   43  A    between atoms: _106  and  _108
REMARK   44  A    between atoms: _108  and  _109
REMARK   45  A    between atoms: _111  and  _113
REMARK   46  A    between atoms: _113  and  _114
REMARK   47  A    between atoms: _116  and  _118
REMARK   48  A    between atoms: _118  and  _119
REMARK   49  A    between atoms: _121  and  _123
REMARK   50  A    between atoms: _123  and  _124
REMARK   51  A    between atoms: _126  and  _128
REMARK   52  A    between atoms: _128  and  _129
REMARK   53  A    between atoms: _128  and  _131
REMARK   54  A    between atoms: _131  and  _132
REMARK   55  A    between atoms: _135  and  _137
REMARK   56  A    between atoms: _137  and  _138
REMARK   57  A    between atoms: _137  and  _140
REMARK   58  A    between atoms: _140  and  _141
REMARK   59  A    between atoms: _141  and  _142
REMARK   60  A    between atoms: _142  and  _143
REMARK   61  A    between atoms: _152  and  _154
REMARK   62  A    between atoms: _154  and  _155
REMARK   63  A    between atoms: _154  and  _157
REMARK   64  A    between atoms: _157  and  _158
REMARK   65  A    between atoms: _161  and  _163
REMARK   66  A    between atoms: _163  and  _164
REMARK   67  A    between atoms: _167  and  _169
REMARK   68  A    between atoms: _169  and  _170
REMARK   69  A    between atoms: _169  and  _172
REMARK   70  A    between atoms: _172  and  _173
REMARK   71  A    between atoms: _176  and  _178
REMARK   72  A    between atoms: _178  and  _179
REMARK   73  A    between atoms: _178  and  _181
REMARK   74  A    between atoms: _181  and  _182
REMARK   75  A    between atoms: _185  and  _187
REMARK   76  A    between atoms: _187  and  _188
REMARK   77  A    between atoms: _191  and  _193
REMARK   78  A    between atoms: _193  and  _194
REMARK   79  A    between atoms: _193  and  _196
REMARK   80  A    between atoms: _196  and  _197
REMARK   81  A    between atoms: _200  and  _202
REMARK   82  A    between atoms: _202  and  _203
REMARK   83  A    between atoms: _202  and  _205
REMARK   84  A    between atoms: _205  and  _206
REMARK   85  A    between atoms: _209  and  _211
REMARK   86  A    between atoms: _211  and  _212
REMARK   87  A    between atoms: _211  and  _214
REMARK   88  A    between atoms: _214  and  _215
REMARK   89  A    between atoms: _220  and  _221
REMARK   90  A    between atoms: _223  and  _225
REMARK   91  A    between atoms: _225  and  _226
REMARK   92  A    between atoms: _225  and  _228
REMARK   93  A    between atoms: _228  and  _229
REMARK   94  A    between atoms: _234  and  _235
REMARK   95  A    between atoms: _237  and  _239
REMARK   96  A    between atoms: _239  and  _240
REMARK   97  A    between atoms: _239  and  _242
REMARK   98  A    between atoms: _242  and  _243
REMARK   99  A    between atoms: _243  and  _244
REMARK  100  A    between atoms: _249  and  _251
REMARK  101  A    between atoms: _251  and  _252
REMARK  102  A    between atoms: _251  and  _254
REMARK  103  A    between atoms: _254  and  _255
REMARK  104  A    between atoms: _255  and  _256
REMARK  105  A    between atoms: _256  and  _257
REMARK  106  A    between atoms: _266  and  _268
REMARK  107  A    between atoms: _268  and  _269
REMARK  108  A    between atoms: _268  and  _271
REMARK  109  A    between atoms: _271  and  _272
REMARK  110  A    between atoms: _277  and  _278
REMARK  111  A    between atoms: _280  and  _282
REMARK  112  A    between atoms: _282  and  _283
REMARK  113  A    between atoms: _282  and  _285
REMARK  114  A    between atoms: _285  and  _286
REMARK  115  A    between atoms: _289  and  _291
REMARK  116  A    between atoms: _291  and  _292
REMARK  117  A    between atoms: _291  and  _294
REMARK  118  A    between atoms: _294  and  _295
REMARK  119  A    between atoms: _305  and  _307
REMARK  120  A    between atoms: _307  and  _308
REMARK  121  A    between atoms: _307  and  _310
REMARK  122  A    between atoms: _310  and  _311
REMARK  123  A    between atoms: _314  and  _316
REMARK  124  A    between atoms: _316  and  _317
REMARK  125  A    between atoms: _316  and  _319
REMARK  126  A    between atoms: _319  and  _320
REMARK  127  A    between atoms: _320  and  _321
REMARK  128  A    between atoms: _324  and  _326
REMARK  129  A    between atoms: _326  and  _327
REMARK  130  A    between atoms: _326  and  _329
REMARK  131  A    between atoms: _329  and  _330
REMARK  132  A    between atoms: _332  and  _334
REMARK  133  A    between atoms: _334  and  _335
REMARK  134  A    between atoms: _334  and  _337
REMARK  135  A    between atoms: _337  and  _338
REMARK  136  A    between atoms: _341  and  _343
REMARK  137  A    between atoms: _343  and  _344
REMARK  138  A    between atoms: _346  and  _348
REMARK  139  A    between atoms: _348  and  _349
REMARK  140  A    between atoms: _348  and  _351
REMARK  141  A    between atoms: _351  and  _352
REMARK  142  A    between atoms: _362  and  _364
REMARK  143  A    between atoms: _364  and  _365
REMARK  144  A    between atoms: _364  and  _367
REMARK  145  A    between atoms: _367  and  _368
REMARK  146  A    between atoms: _368  and  _369
REMARK  147  A    between atoms: _369  and  _370
REMARK  148  A    between atoms: _379  and  _381
REMARK  149  A    between atoms: _381  and  _382
REMARK  150  A    between atoms: _381  and  _384
REMARK  151  A    between atoms: _384  and  _385
REMARK  152  A    between atoms: _385  and  _386
REMARK  153  A    between atoms: _386  and  _387
REMARK  154  A    between atoms: _387  and  _388
REMARK  155  A    between atoms: _392  and  _394
REMARK  156  A    between atoms: _394  and  _395
REMARK  157  A    between atoms: _394  and  _397
REMARK  158  A    between atoms: _397  and  _398
REMARK  159  A    between atoms: _398  and  _399
REMARK  160  A    between atoms: _404  and  _406
REMARK  161  A    between atoms: _406  and  _407
REMARK  162  A    between atoms: _406  and  _409
REMARK  163  A    between atoms: _409  and  _410
REMARK                            x       y       z     vdW  Elec       q    Type
REMARK                         _______ _______ _______ _____ _____    ______ ____
ROOT
ATOM      1  CG  TYR A   1      14.581   6.270  25.481  0.00  0.00    -0.020 A 
ATOM      2  CD2 TYR A   1      14.616   7.467  26.189  0.00  0.00    -0.001 A 
ATOM      3  CE2 TYR A   1      14.720   8.682  25.549  0.00  0.00    +0.036 A 
ATOM      4  CZ  TYR A   1      14.769   8.726  24.174  0.00  0.00    +0.134 A 
ATOM      5  CE1 TYR A   1      14.725   7.561  23.431  0.00  0.00    +0.036 A 
ATOM      6  CD1 TYR A   1      14.640   6.334  24.084  0.00  0.00    -0.001 A 
ENDROOT
BRANCH   4   7
ATOM      7  OH  TYR A   1      14.817   9.951  23.560  0.00  0.00    -0.506 OA
ATOM      8  HH  TYR A   1      14.849   9.826  22.578  0.00  0.00    +0.292 HD
ENDBRANCH   4   7
BRANCH   1   9
ATOM      9  CB  TYR A   1      14.423   4.950  26.210  0.00  0.00    +0.051 C 
BRANCH   9  10
ATOM     10  CA  TYR A   1      15.646   4.052  26.299  0.00  0.00    +0.137 C 
BRANCH  10  11
ATOM     11  N   TYR A   1      15.421   3.023  27.315  0.00  0.00    -0.239 NA
ATOM     12  H   TYR A   1      14.523   3.013  27.839  0.00  0.00    +0.142 HD
ENDBRANCH  10  11
BRANCH  10  13
ATOM     13  C   TYR A   1      16.888   4.877  26.615  0.00  0.00    +0.224 C 
ATOM     14  O   TYR A   1      17.765   5.049  25.771  0.00  0.00    -0.287 OA
ENDBRANCH  10  13
ENDBRANCH   9  10
ENDBRANCH   1   9
TORSDOF 5
REMARK  Name = ../refined-set-2016/3ujc/3ujc_pocket.pdb
REMARK  163 active torsions:
REMARK  status: ('A' for Active; 'I' for Inactive)
REMARK    1  A    between atoms: _1  and  _3
REMARK    2  A    between atoms: _3  and  _4
REMARK    3  A    between atoms: _3  and  _6
REMARK    4  A    between atoms: _6  and  _7
REMARK    5  A    between atoms: _7  and  _8
REMARK    6  A    between atoms: _13  and  _15
REMARK    7  A    between atoms: _15  and  _16
REMARK    8  A    between atoms: _15  and  _18
REMARK    9  A    between atoms: _18  and  _19
REMARK   10  A    between atoms: _24  and  _25
REMARK   11  A    between atoms: _27  and  _29
REMARK   12  A    between atoms: _29  and  _30
REMARK   13  A    between atoms: _32  and  _34
REMARK   14  A    between atoms: _34  and  _35
REMARK   15  A    between atoms: _34  and  _37
REMARK   16  A    between atoms: _37  and  _38
REMARK   17  A    between atoms: _43  and  _44
REMARK   18  A    between atoms: _46  and  _48
REMARK   19  A    between atoms: _48  and  _49
REMARK   20  A    between atoms: _48  and  _51
REMARK   21  A    between atoms: _51  and  _52
REMARK   22  A    between atoms: _55  and  _57
REMARK   23  A    between atoms: _57  and  _58
REMARK   24  A    between atoms: _57  and  _60
REMARK   25  A    between atoms: _60  and  _61
REMARK   26  A    between atoms: _67  and  _69
REMARK   27  A    between atoms: _69  and  _70
REMARK   28  A    between atoms: _69  and  _72
REMARK   29  A    between atoms: _72  and  _73
REMARK   30  A    between atoms: _78  and  _79
REMARK   31  A    between atoms: _81  and  _83
REMARK   32  A    between atoms: _83  and  _84
REMARK   33  A    between atoms: _83  and  _86
REMARK   34  A    between atoms: _86  and  _87
REMARK   35  A    between atoms: _90  and  _92
REMARK   36  A    between atoms: _92  and  _93
REMARK   37  A    between atoms: _92  and  _95
REMARK   38  A    between atoms: _95  and  _96
REMARK   39  A    between atoms: _98  and  _100
REMARK   40  A    between atoms: _100  and  _101
REMARK   41  A    between atoms: _100  and  _103
REMARK   42  A    between atoms: _103  and  _104
REMARK   43  A    between atoms: _106  and  _108
REMARK   44  A    between atoms: _108  and  _109
REMARK   45  A    between atoms: _111  and  _113
REMARK   46  A    between atoms: _113  and  _114
REMARK   47  A    between atoms: _116  and  _118
REMARK   48  A    between atoms: _118  and  _119
REMARK   49  A    between atoms: _121  and  _123
REMARK   50  A    between atoms: _123  and  _124
REMARK   51  A    between atoms: _126  and  _128
REMARK   52  A    between atoms: _128  and  _129
REMARK   53  A    between atoms: _128  and  _131
REMARK   54  A    between atoms: _131  and  _132
REMARK   55  A    between atoms: _135  and  _137
REMARK   56  A    between atoms: _137  and  _138
REMARK   57  A    between atoms: _137  and  _140
REMARK   58  A    between atoms: _140  and  _141
REMARK   59  A    between atoms: _141  and  _142
REMARK   60  A    between atoms: _142  and  _143
REMARK   61  A    between atoms: _152  and  _154
REMARK   62  A    between atoms: _154  and  _155
REMARK   63  A    between atoms: _154  and  _157
REMARK   64  A    between atoms: _157  and  _158
REMARK   65  A    between atoms: _161  and  _163
REMARK   66  A    between atoms: _163  and  _164
REMARK   67  A    between atoms: _167  and  _169
REMARK   68  A    between atoms: _169  and  _170
REMARK   69  A    between atoms: _169  and  _172
REMARK   70  A    between atoms: _172  and  _173
REMARK   71  A    between atoms: _176  and  _178
REMARK   72  A    between atoms: _178  and  _179
REMARK   73  A    between atoms: _178  and  _181
REMARK   74  A    between atoms: _181  and  _182
REMARK   75  A    between atoms: _185  and  _187
REMARK   76  A    between atoms: _187  and  _188
REMARK   77  A    between atoms: _191  and  _193
REMARK   78  A    between atoms: _193  and  _194
REMARK   79  A    between atoms: _193  and  _196
REMARK   80  A    between atoms: _196  and  _197
REMARK   81  A    between atoms: _200  and  _202
REMARK   82  A    between atoms: _202  and  _203
REMARK   83  A    between atoms: _202  and  _205
REMARK   84  A    between atoms: _205  and  _206
REMARK   85  A    between atoms: _209  and  _211
REMARK   86  A    between atoms: _211  and  _212
REMARK   87  A    between atoms: _211  and  _214
REMARK   88  A    between atoms: _214  and  _215
REMARK   89  A    between atoms: _220  and  _221
REMARK   90  A    between atoms: _223  and  _225
REMARK   91  A    between atoms: _225  and  _226
REMARK   92  A    between atoms: _225  and  _228
REMARK   93  A    between atoms: _228  and  _229
REMARK   94  A    between atoms: _234  and  _235
REMARK   95  A    between atoms: _237  and  _239
REMARK   96  A    between atoms: _239  and  _240
REMARK   97  A    between atoms: _239  and  _242
REMARK   98  A    between atoms: _242  and  _243
REMARK   99  A    between atoms: _243  and  _244
REMARK  100  A    between atoms: _249  and  _251
REMARK  101  A    between atoms: _251  and  _252
REMARK  102  A    between atoms: _251  and  _254
REMARK  103  A    between atoms: _254  and  _255
REMARK  104  A    between atoms: _255  and  _256
REMARK  105  A    between atoms: _256  and  _257
REMARK  106  A    between atoms: _266  and  _268
REMARK  107  A    between atoms: _268  and  _269
REMARK  108  A    between atoms: _268  and  _271
REMARK  109  A    between atoms: _271  and  _272
REMARK  110  A    between atoms: _277  and  _278
REMARK  111  A    between atoms: _280  and  _282
REMARK  112  A    between atoms: _282  and  _283
REMARK  113  A    between atoms: _282  and  _285
REMARK  114  A    between atoms: _285  and  _286
REMARK  115  A    between atoms: _289  and  _291
REMARK  116  A    between atoms: _291  and  _292
REMARK  117  A    between atoms: _291  and  _294
REMARK  118  A    between atoms: _294  and  _295
REMARK  119  A    between atoms: _305  and  _307
REMARK  120  A    between atoms: _307  and  _308
REMARK  121  A    between atoms: _307  and  _310
REMARK  122  A    between atoms: _310  and  _311
REMARK  123  A    between atoms: _314  and  _316
REMARK  124  A    between atoms: _316  and  _317
REMARK  125  A    between atoms: _316  and  _319
REMARK  126  A    between atoms: _319  and  _320
REMARK  127  A    between atoms: _320  and  _321
REMARK  128  A    between atoms: _324  and  _326
REMARK  129  A    between atoms: _326  and  _327
REMARK  130  A    between atoms: _326  and  _329
REMARK  131  A    between atoms: _329  and  _330
REMARK  132  A    between atoms: _332  and  _334
REMARK  133  A    between atoms: _334  and  _335
REMARK  134  A    between atoms: _334  and  _337
REMARK  135  A    between atoms: _337  and  _338
REMARK  136  A    between atoms: _341  and  _343
REMARK  137  A    between atoms: _343  and  _344
REMARK  138  A    between atoms: _346  and  _348
REMARK  139  A    between atoms: _348  and  _349
REMARK  140  A    between atoms: _348  and  _351
REMARK  141  A    between atoms: _351  and  _352
REMARK  142  A    between atoms: _362  and  _364
REMARK  143  A    between atoms: _364  and  _365
REMARK  144  A    between atoms: _364  and  _367
REMARK  145  A    between atoms: _367  and  _368
REMARK  146  A    between atoms: _368  and  _369
REMARK  147  A    between atoms: _369  and  _370
REMARK  148  A    between atoms: _379  and  _381
REMARK  149  A    between atoms: _381  and  _382
REMARK  150  A    between atoms: _381  and  _384
REMARK  151  A    between atoms: _384  and  _385
REMARK  152  A    between atoms: _385  and  _386
REMARK  153  A    between atoms: _386  and  _387
REMARK  154  A    between atoms: _387  and  _388
REMARK  155  A    between atoms: _392  and  _394
REMARK  156  A    between atoms: _394  and  _395
REMARK  157  A    between atoms: _394  and  _397
REMARK  158  A    between atoms: _397  and  _398
REMARK  159  A    between atoms: _398  and  _399
REMARK  160  A    between atoms: _404  and  _406
REMARK  161  A    between atoms: _406  and  _407
REMARK  162  A    between atoms: _406  and  _409
REMARK  163  A    between atoms: _409  and  _410
REMARK                            x       y       z     vdW  Elec       q    Type
REMARK                         _______ _______ _______ _____ _____    ______ ____
ROOT
ATOM      1  CA  ARG A   2      20.802   5.933  23.752  0.00  0.00    +0.137 C 
ENDROOT
BRANCH   1   3
ATOM      2  C   GLN A   1      20.952   3.539  24.140  0.00  0.00    +0.238 C 
ATOM      3  N   ARG A   2      20.383   4.707  24.417  0.00  0.00    -0.298 N 
ATOM      4  H   ARG A   2      19.622   4.747  25.124  0.00  0.00    +0.150 HD
ATOM      5  O   GLN A   1      21.871   3.412  23.318  0.00  0.00    -0.274 OA
BRANCH   2   6
ATOM      6  CA  GLN A   1      20.414   2.331  24.895  0.00  0.00    +0.145 C 
BRANCH   6   7
ATOM      7  N   GLN A   1      20.090   2.653  26.284  0.00  0.00    -0.238 NA
ATOM      8  H   GLN A   1      19.104   2.577  26.605  0.00  0.00    +0.142 HD
ENDBRANCH   6   7
BRANCH   6   9
ATOM      9  CB  GLN A   1      19.182   1.746  24.190  0.00  0.00    +0.036 C 
BRANCH   9  10
ATOM     10  CG  GLN A   1      19.414   1.280  22.761  0.00  0.00    +0.087 C 
BRANCH  10  11
ATOM     11  CD  GLN A   1      19.271   2.390  21.728  0.00  0.00    +0.219 C 
ATOM     12  OE1 GLN A   1      18.855   3.504  22.043  0.00  0.00    -0.275 OA
ATOM     13  NE2 GLN A   1      19.613   2.081  20.483  0.00  0.00    -0.329 N 
ATOM     14 HE21 GLN A   1      19.960   1.126  20.261  0.00  0.00    +0.145 HD
ATOM     15 HE22 GLN A   1      19.534   2.794  19.730  0.00  0.00    +0.145 HD
ENDBRANCH  10  11
ENDBRANCH   9  10
ENDBRANCH   6   9
ENDBRANCH   2   6
ENDBRANCH   1   3
BRANCH   1  16
ATOM     16  C   ARG A   2      22.120   6.451  24.311  0.00  0.00    +0.227 C 
ATOM     17  O   ARG A   2      22.782   7.257  23.664  0.00  0.00    -0.286 OA
ENDBRANCH   1  16
BRANCH   1  18
ATOM     18  CB  ARG A   2      19.730   7.018  23.910  0.00  0.00    +0.031 C 
BRANCH  18  19
ATOM     19  CG  ARG A   2      18.468   6.779  23.100  0.00  0.00    +0.045 C 
BRANCH  19  20
ATOM     20  CD  ARG A   2      18.690   7.074  21.626  0.00  0.00    +0.174 C 
BRANCH  20  21
ATOM     21  NE  ARG A   2      17.428   7.279  20.929  0.00  0.00    -0.265 N 
ATOM     22  HE  ARG A   2      17.112   8.260  20.792  0.00  0.00    +0.259 HD
ATOM     23  CZ  ARG A   2      16.645   6.311  20.452  0.00  0.00    +0.342 C 
ATOM     24  NH2 ARG A   2      16.991   5.035  20.563  0.00  0.00    -0.292 N 
ATOM     25 HH21 ARG A   2      17.885   4.777  21.028  0.00  0.00    +0.255 HD
ATOM     26 HH22 ARG A   2      16.368   4.293  20.185  0.00  0.00    +0.255 HD
ATOM     27  NH1 ARG A   2      15.506   6.630  19.855  0.00  0.00    -0.292 N 
ATOM     28 HH11 ARG A   2      15.230   7.628  19.762  0.00  0.00    +0.255 HD
ATOM     29 HH12 ARG A   2      14.888   5.882  19.480  0.00  0.00    +0.255 HD
ENDBRANCH  20  21
ENDBRANCH  19  20
ENDBRANCH  18  19
ENDBRANCH   1  18
TORSDOF 11
REMARK  Name = ../refined-set-2016/3ujc/3ujc_pocket.pdb
REMARK  163 active torsions:
REMARK  status: ('A' for Active; 'I' for Inactive)
REMARK    1  A    between atoms: _1  and  _3
REMARK    2  A    between atoms: _3  and  _4
REMARK    3  A    between atoms: _3  and  _6
REMARK    4  A    between atoms: _6  and  _7
REMARK    5  A    between atoms: _7  and  _8
REMARK    6  A    between atoms: _13  and  _15
REMARK    7  A    between atoms: _15  and  _16
REMARK    8  A    between atoms: _15  and  _18
REMARK    9  A    between atoms: _18  and  _19
REMARK   10  A    between atoms: _24  and  _25
REMARK   11  A    between atoms: _27  and  _29
REMARK   12  A    between atoms: _29  and  _30
REMARK   13  A    between atoms: _32  and  _34
REMARK   14  A    between atoms: _34  and  _35
REMARK   15  A    between atoms: _34  and  _37
REMARK   16  A    between atoms: _37  and  _38
REMARK   17  A    between atoms: _43  and  _44
REMARK   18  A    between atoms: _46  and  _48
REMARK   19  A    between atoms: _48  and  _49
REMARK   20  A    between atoms: _48  and  _51
REMARK   21  A    between atoms: _51  and  _52
REMARK   22  A    between atoms: _55  and  _57
REMARK   23  A    between atoms: _57  and  _58
REMARK   24  A    between atoms: _57  and  _60
REMARK   25  A    between atoms: _60  and  _61
REMARK   26  A    between atoms: _67  and  _69
REMARK   27  A    between atoms: _69  and  _70
REMARK   28  A    between atoms: _69  and  _72
REMARK   29  A    between atoms: _72  and  _73
REMARK   30  A    between atoms: _78  and  _79
REMARK   31  A    between atoms: _81  and  _83
REMARK   32  A    between atoms: _83  and  _84
REMARK   33  A    between atoms: _83  and  _86
REMARK   34  A    between atoms: _86  and  _87
REMARK   35  A    between atoms: _90  and  _92
REMARK   36  A    between atoms: _92  and  _93
REMARK   37  A    between atoms: _92  and  _95
REMARK   38  A    between atoms: _95  and  _96
REMARK   39  A    between atoms: _98  and  _100
REMARK   40  A    between atoms: _100  and  _101
REMARK   41  A    between atoms: _100  and  _103
REMARK   42  A    between atoms: _103  and  _104
REMARK   43  A    between atoms: _106  and  _108
REMARK   44  A    between atoms: _108  and  _109
REMARK   45  A    between atoms: _111  and  _113
REMARK   46  A    between atoms: _113  and  _114
REMARK   47  A    between atoms: _116  and  _118
REMARK   48  A    between atoms: _118  and  _119
REMARK   49  A    between atoms: _121  and  _123
REMARK   50  A    between atoms: _123  and  _124
REMARK   51  A    between atoms: _126  and  _128
REMARK   52  A    between atoms: _128  and  _129
REMARK   53  A    between atoms: _128  and  _131
REMARK   54  A    between atoms: _131  and  _132
REMARK   55  A    between atoms: _135  and  _137
REMARK   56  A    between atoms: _137  and  _138
REMARK   57  A    between atoms: _137  and  _140
REMARK   58  A    between atoms: _140  and  _141
REMARK   59  A    between atoms: _141  and  _142
REMARK   60  A    between atoms: _142  and  _143
REMARK   61  A    between atoms: _152  and  _154
REMARK   62  A    between atoms: _154  and  _155
REMARK   63  A    between atoms: _154  and  _157
REMARK   64  A    between atoms: _157  and  _158
REMARK   65  A    between atoms: _161  and  _163
REMARK   66  A    between atoms: _163  and  _164
REMARK   67  A    between atoms: _167  and  _169
REMARK   68  A    between atoms: _169  and  _170
REMARK   69  A    between atoms: _169  and  _172
REMARK   70  A    between atoms: _172  and  _173
REMARK   71  A    between atoms: _176  and  _178
REMARK   72  A    between atoms: _178  and  _179
REMARK   73  A    between atoms: _178  and  _181
REMARK   74  A    between atoms: _181  and  _182
REMARK   75  A    between atoms: _185  and  _187
REMARK   76  A    between atoms: _187  and  _188
REMARK   77  A    between atoms: _191  and  _193
REMARK   78  A    between atoms: _193  and  _194
REMARK   79  A    between atoms: _193  and  _196
REMARK   80  A    between atoms: _196  and  _197
REMARK   81  A    between atoms: _200  and  _202
REMARK   82  A    between atoms: _202  and  _203
REMARK   83  A    between atoms: _202  and  _205
REMARK   84  A    between atoms: _205  and  _206
REMARK   85  A    between atoms: _209  and  _211
REMARK   86  A    between atoms: _211  and  _212
REMARK   87  A    between atoms: _211  and  _214
REMARK   88  A    between atoms: _214  and  _215
REMARK   89  A    between atoms: _220  and  _221
REMARK   90  A    between atoms: _223  and  _225
REMARK   91  A    between atoms: _225  and  _226
REMARK   92  A    between atoms: _225  and  _228
REMARK   93  A    between atoms: _228  and  _229
REMARK   94  A    between atoms: _234  and  _235
REMARK   95  A    between atoms: _237  and  _239
REMARK   96  A    between atoms: _239  and  _240
REMARK   97  A    between atoms: _239  and  _242
REMARK   98  A    between atoms: _242  and  _243
REMARK   99  A    between atoms: _243  and  _244
REMARK  100  A    between atoms: _249  and  _251
REMARK  101  A    between atoms: _251  and  _252
REMARK  102  A    between atoms: _251  and  _254
REMARK  103  A    between atoms: _254  and  _255
REMARK  104  A    between atoms: _255  and  _256
REMARK  105  A    between atoms: _256  and  _257
REMARK  106  A    between atoms: _266  and  _268
REMARK  107  A    between atoms: _268  and  _269
REMARK  108  A    between atoms: _268  and  _271
REMARK  109  A    between atoms: _271  and  _272
REMARK  110  A    between atoms: _277  and  _278
REMARK  111  A    between atoms: _280  and  _282
REMARK  112  A    between atoms: _282  and  _283
REMARK  113  A    between atoms: _282  and  _285
REMARK  114  A    between atoms: _285  and  _286
REMARK  115  A    between atoms: _289  and  _291
REMARK  116  A    between atoms: _291  and  _292
REMARK  117  A    between atoms: _291  and  _294
REMARK  118  A    between atoms: _294  and  _295
REMARK  119  A    between atoms: _305  and  _307
REMARK  120  A    between atoms: _307  and  _308
REMARK  121  A    between atoms: _307  and  _310
REMARK  122  A    between atoms: _310  and  _311
REMARK  123  A    between atoms: _314  and  _316
REMARK  124  A    between atoms: _316  and  _317
REMARK  125  A    between atoms: _316  and  _319
REMARK  126  A    between atoms: _319  and  _320
REMARK  127  A    between atoms: _320  and  _321
REMARK  128  A    between atoms: _324  and  _326
REMARK  129  A    between atoms: _326  and  _327
REMARK  130  A    between atoms: _326  and  _329
REMARK  131  A    between atoms: _329  and  _330
REMARK  132  A    between atoms: _332  and  _334
REMARK  133  A    between atoms: _334  and  _335
REMARK  134  A    between atoms: _334  and  _337
REMARK  135  A    between atoms: _337  and  _338
REMARK  136  A    between atoms: _341  and  _343
REMARK  137  A    between atoms: _343  and  _344
REMARK  138  A    between atoms: _346  and  _348
REMARK  139  A    between atoms: _348  and  _349
REMARK  140  A    between atoms: _348  and  _351
REMARK  141  A    between atoms: _351  and  _352
REMARK  142  A    between atoms: _362  and  _364
REMARK  143  A    between atoms: _364  and  _365
REMARK  144  A    between atoms: _364  and  _367
REMARK  145  A    between atoms: _367  and  _368
REMARK  146  A    between atoms: _368  and  _369
REMARK  147  A    between atoms: _369  and  _370
REMARK  148  A    between atoms: _379  and  _381
REMARK  149  A    between atoms: _381  and  _382
REMARK  150  A    between atoms: _381  and  _384
REMARK  151  A    between atoms: _384  and  _385
REMARK  152  A    between atoms: _385  and  _386
REMARK  153  A    between atoms: _386  and  _387
REMARK  154  A    between atoms: _387  and  _388
REMARK  155  A    between atoms: _392  and  _394
REMARK  156  A    between atoms: _394  and  _395
REMARK  157  A    between atoms: _394  and  _397
REMARK  158  A    between atoms: _397  and  _398
REMARK  159  A    between atoms: _398  and  _399
REMARK  160  A    between atoms: _404  and  _406
REMARK  161  A    between atoms: _406  and  _407
REMARK  162  A    between atoms: _406  and  _409
REMARK  163  A    between atoms: _409  and  _410
REMARK                            x       y       z     vdW  Elec       q    Type
REMARK                         _______ _______ _______ _____ _____    ______ ____
ROOT
ATOM      1  CG  TYR A   1      20.015  10.249  25.570  0.00  0.00    -0.020 A 
ATOM      2  CD2 TYR A   1      18.657  10.090  25.293  0.00  0.00    -0.001 A 
ATOM      3  CE2 TYR A   1      18.157  10.222  23.997  0.00  0.00    +0.036 A 
ATOM      4  CZ  TYR A   1      19.031  10.494  22.964  0.00  0.00    +0.134 A 
ATOM      5  CE1 TYR A   1      20.384  10.641  23.205  0.00  0.00    +0.036 A 
ATOM      6  CD1 TYR A   1      20.871  10.528  24.507  0.00  0.00    -0.001 A 
ENDROOT
BRANCH   4   7
ATOM      7  OH  TYR A   1      18.544  10.642  21.687  0.00  0.00    -0.506 OA
ATOM      8  HH  TYR A   1      18.090   9.807  21.410  0.00  0.00    +0.292 HD
ENDBRANCH   4   7
BRANCH   1   9
ATOM      9  CB  TYR A   1      20.516  10.149  26.997  0.00  0.00    +0.051 C 
BRANCH   9  10
ATOM     10  CA  TYR A   1      21.989   9.818  27.199  0.00  0.00    +0.137 C 
BRANCH  10  11
ATOM     11  N   TYR A   1      22.243   8.454  26.767  0.00  0.00    -0.239 NA
ATOM     12  H   TYR A   1      21.442   7.814  26.591  0.00  0.00    +0.142 HD
ENDBRANCH  10  11
BRANCH  10  13
ATOM     13  C   TYR A   1      22.269   9.979  28.681  0.00  0.00    +0.224 C 
ATOM     14  O   TYR A   1      22.174   9.032  29.456  0.00  0.00    -0.287 OA
ENDBRANCH  10  13
ENDBRANCH   9  10
ENDBRANCH   1   9
TORSDOF 5
REMARK  Name = ../refined-set-2016/3ujc/3ujc_pocket.pdb
REMARK  163 active torsions:
REMARK  status: ('A' for Active; 'I' for Inactive)
REMARK    1  A    between atoms: _1  and  _3
REMARK    2  A    between atoms: _3  and  _4
REMARK    3  A    between atoms: _3  and  _6
REMARK    4  A    between atoms: _6  and  _7
REMARK    5  A    between atoms: _7  and  _8
REMARK    6  A    between atoms: _13  and  _15
REMARK    7  A    between atoms: _15  and  _16
REMARK    8  A    between atoms: _15  and  _18
REMARK    9  A    between atoms: _18  and  _19
REMARK   10  A    between atoms: _24  and  _25
REMARK   11  A    between atoms: _27  and  _29
REMARK   12  A    between atoms: _29  and  _30
REMARK   13  A    between atoms: _32  and  _34
REMARK   14  A    between atoms: _34  and  _35
REMARK   15  A    between atoms: _34  and  _37
REMARK   16  A    between atoms: _37  and  _38
REMARK   17  A    between atoms: _43  and  _44
REMARK   18  A    between atoms: _46  and  _48
REMARK   19  A    between atoms: _48  and  _49
REMARK   20  A    between atoms: _48  and  _51
REMARK   21  A    between atoms: _51  and  _52
REMARK   22  A    between atoms: _55  and  _57
REMARK   23  A    between atoms: _57  and  _58
REMARK   24  A    between atoms: _57  and  _60
REMARK   25  A    between atoms: _60  and  _61
REMARK   26  A    between atoms: _67  and  _69
REMARK   27  A    between atoms: _69  and  _70
REMARK   28  A    between atoms: _69  and  _72
REMARK   29  A    between atoms: _72  and  _73
REMARK   30  A    between atoms: _78  and  _79
REMARK   31  A    between atoms: _81  and  _83
REMARK   32  A    between atoms: _83  and  _84
REMARK   33  A    between atoms: _83  and  _86
REMARK   34  A    between atoms: _86  and  _87
REMARK   35  A    between atoms: _90  and  _92
REMARK   36  A    between atoms: _92  and  _93
REMARK   37  A    between atoms: _92  and  _95
REMARK   38  A    between atoms: _95  and  _96
REMARK   39  A    between atoms: _98  and  _100
REMARK   40  A    between atoms: _100  and  _101
REMARK   41  A    between atoms: _100  and  _103
REMARK   42  A    between atoms: _103  and  _104
REMARK   43  A    between atoms: _106  and  _108
REMARK   44  A    between atoms: _108  and  _109
REMARK   45  A    between atoms: _111  and  _113
REMARK   46  A    between atoms: _113  and  _114
REMARK   47  A    between atoms: _116  and  _118
REMARK   48  A    between atoms: _118  and  _119
REMARK   49  A    between atoms: _121  and  _123
REMARK   50  A    between atoms: _123  and  _124
REMARK   51  A    between atoms: _126  and  _128
REMARK   52  A    between atoms: _128  and  _129
REMARK   53  A    between atoms: _128  and  _131
REMARK   54  A    between atoms: _131  and  _132
REMARK   55  A    between atoms: _135  and  _137
REMARK   56  A    between atoms: _137  and  _138
REMARK   57  A    between atoms: _137  and  _140
REMARK   58  A    between atoms: _140  and  _141
REMARK   59  A    between atoms: _141  and  _142
REMARK   60  A    between atoms: _142  and  _143
REMARK   61  A    between atoms: _152  and  _154
REMARK   62  A    between atoms: _154  and  _155
REMARK   63  A    between atoms: _154  and  _157
REMARK   64  A    between atoms: _157  and  _158
REMARK   65  A    between atoms: _161  and  _163
REMARK   66  A    between atoms: _163  and  _164
REMARK   67  A    between atoms: _167  and  _169
REMARK   68  A    between atoms: _169  and  _170
REMARK   69  A    between atoms: _169  and  _172
REMARK   70  A    between atoms: _172  and  _173
REMARK   71  A    between atoms: _176  and  _178
REMARK   72  A    between atoms: _178  and  _179
REMARK   73  A    between atoms: _178  and  _181
REMARK   74  A    between atoms: _181  and  _182
REMARK   75  A    between atoms: _185  and  _187
REMARK   76  A    between atoms: _187  and  _188
REMARK   77  A    between atoms: _191  and  _193
REMARK   78  A    between atoms: _193  and  _194
REMARK   79  A    between atoms: _193  and  _196
REMARK   80  A    between atoms: _196  and  _197
REMARK   81  A    between atoms: _200  and  _202
REMARK   82  A    between atoms: _202  and  _203
REMARK   83  A    between atoms: _202  and  _205
REMARK   84  A    between atoms: _205  and  _206
REMARK   85  A    between atoms: _209  and  _211
REMARK   86  A    between atoms: _211  and  _212
REMARK   87  A    between atoms: _211  and  _214
REMARK   88  A    between atoms: _214  and  _215
REMARK   89  A    between atoms: _220  and  _221
REMARK   90  A    between atoms: _223  and  _225
REMARK   91  A    between atoms: _225  and  _226
REMARK   92  A    between atoms: _225  and  _228
REMARK   93  A    between atoms: _228  and  _229
REMARK   94  A    between atoms: _234  and  _235
REMARK   95  A    between atoms: _237  and  _239
REMARK   96  A    between atoms: _239  and  _240
REMARK   97  A    between atoms: _239  and  _242
REMARK   98  A    between atoms: _242  and  _243
REMARK   99  A    between atoms: _243  and  _244
REMARK  100  A    between atoms: _249  and  _251
REMARK  101  A    between atoms: _251  and  _252
REMARK  102  A    between atoms: _251  and  _254
REMARK  103  A    between atoms: _254  and  _255
REMARK  104  A    between atoms: _255  and  _256
REMARK  105  A    between atoms: _256  and  _257
REMARK  106  A    between atoms: _266  and  _268
REMARK  107  A    between atoms: _268  and  _269
REMARK  108  A    between atoms: _268  and  _271
REMARK  109  A    between atoms: _271  and  _272
REMARK  110  A    between atoms: _277  and  _278
REMARK  111  A    between atoms: _280  and  _282
REMARK  112  A    between atoms: _282  and  _283
REMARK  113  A    between atoms: _282  and  _285
REMARK  114  A    between atoms: _285  and  _286
REMARK  115  A    between atoms: _289  and  _291
REMARK  116  A    between atoms: _291  and  _292
REMARK  117  A    between atoms: _291  and  _294
REMARK  118  A    between atoms: _294  and  _295
REMARK  119  A    between atoms: _305  and  _307
REMARK  120  A    between atoms: _307  and  _308
REMARK  121  A    between atoms: _307  and  _310
REMARK  122  A    between atoms: _310  and  _311
REMARK  123  A    between atoms: _314  and  _316
REMARK  124  A    between atoms: _316  and  _317
REMARK  125  A    between atoms: _316  and  _319
REMARK  126  A    between atoms: _319  and  _320
REMARK  127  A    between atoms: _320  and  _321
REMARK  128  A    between atoms: _324  and  _326
REMARK  129  A    between atoms: _326  and  _327
REMARK  130  A    between atoms: _326  and  _329
REMARK  131  A    between atoms: _329  and  _330
REMARK  132  A    between atoms: _332  and  _334
REMARK  133  A    between atoms: _334  and  _335
REMARK  134  A    between atoms: _334  and  _337
REMARK  135  A    between atoms: _337  and  _338
REMARK  136  A    between atoms: _341  and  _343
REMARK  137  A    between atoms: _343  and  _344
REMARK  138  A    between atoms: _346  and  _348
REMARK  139  A    between atoms: _348  and  _349
REMARK  140  A    between atoms: _348  and  _351
REMARK  141  A    between atoms: _351  and  _352
REMARK  142  A    between atoms: _362  and  _364
REMARK  143  A    between atoms: _364  and  _365
REMARK  144  A    between atoms: _364  and  _367
REMARK  145  A    between atoms: _367  and  _368
REMARK  146  A    between atoms: _368  and  _369
REMARK  147  A    between atoms: _369  and  _370
REMARK  148  A    between atoms: _379  and  _381
REMARK  149  A    between atoms: _381  and  _382
REMARK  150  A    between atoms: _381  and  _384
REMARK  151  A    between atoms: _384  and  _385
REMARK  152  A    between atoms: _385  and  _386
REMARK  153  A    between atoms: _386  and  _387
REMARK  154  A    between atoms: _387  and  _388
REMARK  155  A    between atoms: _392  and  _394
REMARK  156  A    between atoms: _394  and  _395
REMARK  157  A    between atoms: _394  and  _397
REMARK  158  A    between atoms: _397  and  _398
REMARK  159  A    between atoms: _398  and  _399
REMARK  160  A    between atoms: _404  and  _406
REMARK  161  A    between atoms: _406  and  _407
REMARK  162  A    between atoms: _406  and  _409
REMARK  163  A    between atoms: _409  and  _410
REMARK                            x       y       z     vdW  Elec       q    Type
REMARK                         _______ _______ _______ _____ _____    ______ ____
ROOT
ATOM      1  CA  LEU A   1      19.127  13.129  31.242  0.00  0.00    +0.133 C 
ENDROOT
BRANCH   1   2
ATOM      2  N   LEU A   1      20.280  12.229  31.139  0.00  0.00    -0.239 NA
ATOM      3  H   LEU A   1      20.196  11.251  31.482  0.00  0.00    +0.142 HD
ENDBRANCH   1   2
BRANCH   1   4
ATOM      4  C   LEU A   1      18.936  13.587  32.678  0.00  0.00    +0.224 C 
ATOM      5  O   LEU A   1      18.721  12.772  33.576  0.00  0.00    -0.287 OA
ENDBRANCH   1   4
BRANCH   1   6
ATOM      6  CB  LEU A   1      17.838  12.464  30.751  0.00  0.00    +0.025 C 
BRANCH   6   7
ATOM      7  CG  LEU A   1      17.870  11.924  29.321  0.00  0.00    +0.002 C 
ATOM      8  CD2 LEU A   1      16.478  11.474  28.925  0.00  0.00    +0.000 C 
ATOM      9  CD1 LEU A   1      18.360  12.968  28.340  0.00  0.00    +0.000 C 
ENDBRANCH   6   7
ENDBRANCH   1   6
TORSDOF 4
REMARK  Name = ../refined-set-2016/3ujc/3ujc_pocket.pdb
REMARK  163 active torsions:
REMARK  status: ('A' for Active; 'I' for Inactive)
REMARK    1  A    between atoms: _1  and  _3
REMARK    2  A    between atoms: _3  and  _4
REMARK    3  A    between atoms: _3  and  _6
REMARK    4  A    between atoms: _6  and  _7
REMARK    5  A    between atoms: _7  and  _8
REMARK    6  A    between atoms: _13  and  _15
REMARK    7  A    between atoms: _15  and  _16
REMARK    8  A    between atoms: _15  and  _18
REMARK    9  A    between atoms: _18  and  _19
REMARK   10  A    between atoms: _24  and  _25
REMARK   11  A    between atoms: _27  and  _29
REMARK   12  A    between atoms: _29  and  _30
REMARK   13  A    between atoms: _32  and  _34
REMARK   14  A    between atoms: _34  and  _35
REMARK   15  A    between atoms: _34  and  _37
REMARK   16  A    between atoms: _37  and  _38
REMARK   17  A    between atoms: _43  and  _44
REMARK   18  A    between atoms: _46  and  _48
REMARK   19  A    between atoms: _48  and  _49
REMARK   20  A    between atoms: _48  and  _51
REMARK   21  A    between atoms: _51  and  _52
REMARK   22  A    between atoms: _55  and  _57
REMARK   23  A    between atoms: _57  and  _58
REMARK   24  A    between atoms: _57  and  _60
REMARK   25  A    between atoms: _60  and  _61
REMARK   26  A    between atoms: _67  and  _69
REMARK   27  A    between atoms: _69  and  _70
REMARK   28  A    between atoms: _69  and  _72
REMARK   29  A    between atoms: _72  and  _73
REMARK   30  A    between atoms: _78  and  _79
REMARK   31  A    between atoms: _81  and  _83
REMARK   32  A    between atoms: _83  and  _84
REMARK   33  A    between atoms: _83  and  _86
REMARK   34  A    between atoms: _86  and  _87
REMARK   35  A    between atoms: _90  and  _92
REMARK   36  A    between atoms: _92  and  _93
REMARK   37  A    between atoms: _92  and  _95
REMARK   38  A    between atoms: _95  and  _96
REMARK   39  A    between atoms: _98  and  _100
REMARK   40  A    between atoms: _100  and  _101
REMARK   41  A    between atoms: _100  and  _103
REMARK   42  A    between atoms: _103  and  _104
REMARK   43  A    between atoms: _106  and  _108
REMARK   44  A    between atoms: _108  and  _109
REMARK   45  A    between atoms: _111  and  _113
REMARK   46  A    between atoms: _113  and  _114
REMARK   47  A    between atoms: _116  and  _118
REMARK   48  A    between atoms: _118  and  _119
REMARK   49  A    between atoms: _121  and  _123
REMARK   50  A    between atoms: _123  and  _124
REMARK   51  A    between atoms: _126  and  _128
REMARK   52  A    between atoms: _128  and  _129
REMARK   53  A    between atoms: _128  and  _131
REMARK   54  A    between atoms: _131  and  _132
REMARK   55  A    between atoms: _135  and  _137
REMARK   56  A    between atoms: _137  and  _138
REMARK   57  A    between atoms: _137  and  _140
REMARK   58  A    between atoms: _140  and  _141
REMARK   59  A    between atoms: _141  and  _142
REMARK   60  A    between atoms: _142  and  _143
REMARK   61  A    between atoms: _152  and  _154
REMARK   62  A    between atoms: _154  and  _155
REMARK   63  A    between atoms: _154  and  _157
REMARK   64  A    between atoms: _157  and  _158
REMARK   65  A    between atoms: _161  and  _163
REMARK   66  A    between atoms: _163  and  _164
REMARK   67  A    between atoms: _167  and  _169
REMARK   68  A    between atoms: _169  and  _170
REMARK   69  A    between atoms: _169  and  _172
REMARK   70  A    between atoms: _172  and  _173
REMARK   71  A    between atoms: _176  and  _178
REMARK   72  A    between atoms: _178  and  _179
REMARK   73  A    between atoms: _178  and  _181
REMARK   74  A    between atoms: _181  and  _182
REMARK   75  A    between atoms: _185  and  _187
REMARK   76  A    between atoms: _187  and  _188
REMARK   77  A    between atoms: _191  and  _193
REMARK   78  A    between atoms: _193  and  _194
REMARK   79  A    between atoms: _193  and  _196
REMARK   80  A    between atoms: _196  and  _197
REMARK   81  A    between atoms: _200  and  _202
REMARK   82  A    between atoms: _202  and  _203
REMARK   83  A    between atoms: _202  and  _205
REMARK   84  A    between atoms: _205  and  _206
REMARK   85  A    between atoms: _209  and  _211
REMARK   86  A    between atoms: _211  and  _212
REMARK   87  A    between atoms: _211  and  _214
REMARK   88  A    between atoms: _214  and  _215
REMARK   89  A    between atoms: _220  and  _221
REMARK   90  A    between atoms: _223  and  _225
REMARK   91  A    between atoms: _225  and  _226
REMARK   92  A    between atoms: _225  and  _228
REMARK   93  A    between atoms: _228  and  _229
REMARK   94  A    between atoms: _234  and  _235
REMARK   95  A    between atoms: _237  and  _239
REMARK   96  A    between atoms: _239  and  _240
REMARK   97  A    between atoms: _239  and  _242
REMARK   98  A    between atoms: _242  and  _243
REMARK   99  A    between atoms: _243  and  _244
REMARK  100  A    between atoms: _249  and  _251
REMARK  101  A    between atoms: _251  and  _252
REMARK  102  A    between atoms: _251  and  _254
REMARK  103  A    between atoms: _254  and  _255
REMARK  104  A    between atoms: _255  and  _256
REMARK  105  A    between atoms: _256  and  _257
REMARK  106  A    between atoms: _266  and  _268
REMARK  107  A    between atoms: _268  and  _269
REMARK  108  A    between atoms: _268  and  _271
REMARK  109  A    between atoms: _271  and  _272
REMARK  110  A    between atoms: _277  and  _278
REMARK  111  A    between atoms: _280  and  _282
REMARK  112  A    between atoms: _282  and  _283
REMARK  113  A    between atoms: _282  and  _285
REMARK  114  A    between atoms: _285  and  _286
REMARK  115  A    between atoms: _289  and  _291
REMARK  116  A    between atoms: _291  and  _292
REMARK  117  A    between atoms: _291  and  _294
REMARK  118  A    between atoms: _294  and  _295
REMARK  119  A    between atoms: _305  and  _307
REMARK  120  A    between atoms: _307  and  _308
REMARK  121  A    between atoms: _307  and  _310
REMARK  122  A    between atoms: _310  and  _311
REMARK  123  A    between atoms: _314  and  _316
REMARK  124  A    between atoms: _316  and  _317
REMARK  125  A    between atoms: _316  and  _319
REMARK  126  A    between atoms: _319  and  _320
REMARK  127  A    between atoms: _320  and  _321
REMARK  128  A    between atoms: _324  and  _326
REMARK  129  A    between atoms: _326  and  _327
REMARK  130  A    between atoms: _326  and  _329
REMARK  131  A    between atoms: _329  and  _330
REMARK  132  A    between atoms: _332  and  _334
REMARK  133  A    between atoms: _334  and  _335
REMARK  134  A    between atoms: _334  and  _337
REMARK  135  A    between atoms: _337  and  _338
REMARK  136  A    between atoms: _341  and  _343
REMARK  137  A    between atoms: _343  and  _344
REMARK  138  A    between atoms: _346  and  _348
REMARK  139  A    between atoms: _348  and  _349
REMARK  140  A    between atoms: _348  and  _351
REMARK  141  A    between atoms: _351  and  _352
REMARK  142  A    between atoms: _362  and  _364
REMARK  143  A    between atoms: _364  and  _365
REMARK  144  A    between atoms: _364  and  _367
REMARK  145  A    between atoms: _367  and  _368
REMARK  146  A    between atoms: _368  and  _369
REMARK  147  A    between atoms: _369  and  _370
REMARK  148  A    between atoms: _379  and  _381
REMARK  149  A    between atoms: _381  and  _382
REMARK  150  A    between atoms: _381  and  _384
REMARK  151  A    between atoms: _384  and  _385
REMARK  152  A    between atoms: _385  and  _386
REMARK  153  A    between atoms: _386  and  _387
REMARK  154  A    between atoms: _387  and  _388
REMARK  155  A    between atoms: _392  and  _394
REMARK  156  A    between atoms: _394  and  _395
REMARK  157  A    between atoms: _394  and  _397
REMARK  158  A    between atoms: _397  and  _398
REMARK  159  A    between atoms: _398  and  _399
REMARK  160  A    between atoms: _404  and  _406
REMARK  161  A    between atoms: _406  and  _407
REMARK  162  A    between atoms: _406  and  _409
REMARK  163  A    between atoms: _409  and  _410
REMARK                            x       y       z     vdW  Elec       q    Type
REMARK                         _______ _______ _______ _____ _____    ______ ____
ROOT
ATOM      1  CG  TRP A   1       9.310  17.919  23.256  0.00  0.00    -0.002 A 
ATOM      2  CD2 TRP A   1       9.651  16.602  23.705  0.00  0.00    +0.013 A 
ATOM      3  CE3 TRP A   1       9.194  15.787  24.751  0.00  0.00    +0.001 A 
ATOM      4  CZ3 TRP A   1       9.745  14.526  24.891  0.00  0.00    +0.000 A 
ATOM      5  CH2 TRP A   1      10.741  14.058  24.007  0.00  0.00    +0.001 A 
ATOM      6  CZ2 TRP A   1      11.203  14.831  22.976  0.00  0.00    +0.017 A 
ATOM      7  CE2 TRP A   1      10.656  16.113  22.839  0.00  0.00    +0.056 A 
ATOM      8  NE1 TRP A   1      10.921  17.095  21.915  0.00  0.00    -0.352 N 
ATOM      9  HE1 TRP A   1      11.617  17.031  21.145  0.00  0.00    +0.166 HD
ATOM     10  CD1 TRP A   1      10.111  18.180  22.177  0.00  0.00    +0.068 A 
ENDROOT
BRANCH   1  11
ATOM     11  CB  TRP A   1       8.325  18.844  23.887  0.00  0.00    +0.053 C 
BRANCH  11  12
ATOM     12  CA  TRP A   1       7.260  19.380  22.933  0.00  0.00    +0.137 C 
BRANCH  12  13
ATOM     13  N   TRP A   1       6.538  20.484  23.556  0.00  0.00    -0.239 NA
ATOM     14  H   TRP A   1       6.774  20.767  24.529  0.00  0.00    +0.142 HD
ENDBRANCH  12  13
BRANCH  12  15
ATOM     15  C   TRP A   1       6.276  18.278  22.538  0.00  0.00    +0.224 C 
ATOM     16  O   TRP A   1       6.355  17.710  21.445  0.00  0.00    -0.287 OA
ENDBRANCH  12  15
ENDBRANCH  11  12
ENDBRANCH   1  11
TORSDOF 4
REMARK  Name = ../refined-set-2016/3ujc/3ujc_pocket.pdb
REMARK  163 active torsions:
REMARK  status: ('A' for Active; 'I' for Inactive)
REMARK    1  A    between atoms: _1  and  _3
REMARK    2  A    between atoms: _3  and  _4
REMARK    3  A    between atoms: _3  and  _6
REMARK    4  A    between atoms: _6  and  _7
REMARK    5  A    between atoms: _7  and  _8
REMARK    6  A    between atoms: _13  and  _15
REMARK    7  A    between atoms: _15  and  _16
REMARK    8  A    between atoms: _15  and  _18
REMARK    9  A    between atoms: _18  and  _19
REMARK   10  A    between atoms: _24  and  _25
REMARK   11  A    between atoms: _27  and  _29
REMARK   12  A    between atoms: _29  and  _30
REMARK   13  A    between atoms: _32  and  _34
REMARK   14  A    between atoms: _34  and  _35
REMARK   15  A    between atoms: _34  and  _37
REMARK   16  A    between atoms: _37  and  _38
REMARK   17  A    between atoms: _43  and  _44
REMARK   18  A    between atoms: _46  and  _48
REMARK   19  A    between atoms: _48  and  _49
REMARK   20  A    between atoms: _48  and  _51
REMARK   21  A    between atoms: _51  and  _52
REMARK   22  A    between atoms: _55  and  _57
REMARK   23  A    between atoms: _57  and  _58
REMARK   24  A    between atoms: _57  and  _60
REMARK   25  A    between atoms: _60  and  _61
REMARK   26  A    between atoms: _67  and  _69
REMARK   27  A    between atoms: _69  and  _70
REMARK   28  A    between atoms: _69  and  _72
REMARK   29  A    between atoms: _72  and  _73
REMARK   30  A    between atoms: _78  and  _79
REMARK   31  A    between atoms: _81  and  _83
REMARK   32  A    between atoms: _83  and  _84
REMARK   33  A    between atoms: _83  and  _86
REMARK   34  A    between atoms: _86  and  _87
REMARK   35  A    between atoms: _90  and  _92
REMARK   36  A    between atoms: _92  and  _93
REMARK   37  A    between atoms: _92  and  _95
REMARK   38  A    between atoms: _95  and  _96
REMARK   39  A    between atoms: _98  and  _100
REMARK   40  A    between atoms: _100  and  _101
REMARK   41  A    between atoms: _100  and  _103
REMARK   42  A    between atoms: _103  and  _104
REMARK   43  A    between atoms: _106  and  _108
REMARK   44  A    between atoms: _108  and  _109
REMARK   45  A    between atoms: _111  and  _113
REMARK   46  A    between atoms: _113  and  _114
REMARK   47  A    between atoms: _116  and  _118
REMARK   48  A    between atoms: _118  and  _119
REMARK   49  A    between atoms: _121  and  _123
REMARK   50  A    between atoms: _123  and  _124
REMARK   51  A    between atoms: _126  and  _128
REMARK   52  A    between atoms: _128  and  _129
REMARK   53  A    between atoms: _128  and  _131
REMARK   54  A    between atoms: _131  and  _132
REMARK   55  A    between atoms: _135  and  _137
REMARK   56  A    between atoms: _137  and  _138
REMARK   57  A    between atoms: _137  and  _140
REMARK   58  A    between atoms: _140  and  _141
REMARK   59  A    between atoms: _141  and  _142
REMARK   60  A    between atoms: _142  and  _143
REMARK   61  A    between atoms: _152  and  _154
REMARK   62  A    between atoms: _154  and  _155
REMARK   63  A    between atoms: _154  and  _157
REMARK   64  A    between atoms: _157  and  _158
REMARK   65  A    between atoms: _161  and  _163
REMARK   66  A    between atoms: _163  and  _164
REMARK   67  A    between atoms: _167  and  _169
REMARK   68  A    between atoms: _169  and  _170
REMARK   69  A    between atoms: _169  and  _172
REMARK   70  A    between atoms: _172  and  _173
REMARK   71  A    between atoms: _176  and  _178
REMARK   72  A    between atoms: _178  and  _179
REMARK   73  A    between atoms: _178  and  _181
REMARK   74  A    between atoms: _181  and  _182
REMARK   75  A    between atoms: _185  and  _187
REMARK   76  A    between atoms: _187  and  _188
REMARK   77  A    between atoms: _191  and  _193
REMARK   78  A    between atoms: _193  and  _194
REMARK   79  A    between atoms: _193  and  _196
REMARK   80  A    between atoms: _196  and  _197
REMARK   81  A    between atoms: _200  and  _202
REMARK   82  A    between atoms: _202  and  _203
REMARK   83  A    between atoms: _202  and  _205
REMARK   84  A    between atoms: _205  and  _206
REMARK   85  A    between atoms: _209  and  _211
REMARK   86  A    between atoms: _211  and  _212
REMARK   87  A    between atoms: _211  and  _214
REMARK   88  A    between atoms: _214  and  _215
REMARK   89  A    between atoms: _220  and  _221
REMARK   90  A    between atoms: _223  and  _225
REMARK   91  A    between atoms: _225  and  _226
REMARK   92  A    between atoms: _225  and  _228
REMARK   93  A    between atoms: _228  and  _229
REMARK   94  A    between atoms: _234  and  _235
REMARK   95  A    between atoms: _237  and  _239
REMARK   96  A    between atoms: _239  and  _240
REMARK   97  A    between atoms: _239  and  _242
REMARK   98  A    between atoms: _242  and  _243
REMARK   99  A    between atoms: _243  and  _244
REMARK  100  A    between atoms: _249  and  _251
REMARK  101  A    between atoms: _251  and  _252
REMARK  102  A    between atoms: _251  and  _254
REMARK  103  A    between atoms: _254  and  _255
REMARK  104  A    between atoms: _255  and  _256
REMARK  105  A    between atoms: _256  and  _257
REMARK  106  A    between atoms: _266  and  _268
REMARK  107  A    between atoms: _268  and  _269
REMARK  108  A    between atoms: _268  and  _271
REMARK  109  A    between atoms: _271  and  _272
REMARK  110  A    between atoms: _277  and  _278
REMARK  111  A    between atoms: _280  and  _282
REMARK  112  A    between atoms: _282  and  _283
REMARK  113  A    between atoms: _282  and  _285
REMARK  114  A    between atoms: _285  and  _286
REMARK  115  A    between atoms: _289  and  _291
REMARK  116  A    between atoms: _291  and  _292
REMARK  117  A    between atoms: _291  and  _294
REMARK  118  A    between atoms: _294  and  _295
REMARK  119  A    between atoms: _305  and  _307
REMARK  120  A    between atoms: _307  and  _308
REMARK  121  A    between atoms: _307  and  _310
REMARK  122  A    between atoms: _310  and  _311
REMARK  123  A    between atoms: _314  and  _316
REMARK  124  A    between atoms: _316  and  _317
REMARK  125  A    between atoms: _316  and  _319
REMARK  126  A    between atoms: _319  and  _320
REMARK  127  A    between atoms: _320  and  _321
REMARK  128  A    between atoms: _324  and  _326
REMARK  129  A    between atoms: _326  and  _327
REMARK  130  A    between atoms: _326  and  _329
REMARK  131  A    between atoms: _329  and  _330
REMARK  132  A    between atoms: _332  and  _334
REMARK  133  A    between atoms: _334  and  _335
REMARK  134  A    between atoms: _334  and  _337
REMARK  135  A    between atoms: _337  and  _338
REMARK  136  A    between atoms: _341  and  _343
REMARK  137  A    between atoms: _343  and  _344
REMARK  138  A    between atoms: _346  and  _348
REMARK  139  A    between atoms: _348  and  _349
REMARK  140  A    between atoms: _348  and  _351
REMARK  141  A    between atoms: _351  and  _352
REMARK  142  A    between atoms: _362  and  _364
REMARK  143  A    between atoms: _364  and  _365
REMARK  144  A    between atoms: _364  and  _367
REMARK  145  A    between atoms: _367  and  _368
REMARK  146  A    between atoms: _368  and  _369
REMARK  147  A    between atoms: _369  and  _370
REMARK  148  A    between atoms: _379  and  _381
REMARK  149  A    between atoms: _381  and  _382
REMARK  150  A    between atoms: _381  and  _384
REMARK  151  A    between atoms: _384  and  _385
REMARK  152  A    between atoms: _385  and  _386
REMARK  153  A    between atoms: _386  and  _387
REMARK  154  A    between atoms: _387  and  _388
REMARK  155  A    between atoms: _392  and  _394
REMARK  156  A    between atoms: _394  and  _395
REMARK  157  A    between atoms: _394  and  _397
REMARK  158  A    between atoms: _397  and  _398
REMARK  159  A    between atoms: _398  and  _399
REMARK  160  A    between atoms: _404  and  _406
REMARK  161  A    between atoms: _406  and  _407
REMARK  162  A    between atoms: _406  and  _409
REMARK  163  A    between atoms: _409  and  _410
REMARK                            x       y       z     vdW  Elec       q    Type
REMARK                         _______ _______ _______ _____ _____    ______ ____
ROOT
ATOM      1  CA  LEU A   1       5.761  15.296  18.649  0.00  0.00    +0.133 C 
ENDROOT
BRANCH   1   2
ATOM      2  N   LEU A   1       5.716  16.734  18.868  0.00  0.00    -0.239 NA
ATOM      3  H   LEU A   1       5.781  17.096  19.841  0.00  0.00    +0.142 HD
ENDBRANCH   1   2
BRANCH   1   4
ATOM      4  C   LEU A   1       4.487  14.803  17.966  0.00  0.00    +0.224 C 
ATOM      5  O   LEU A   1       4.540  13.938  17.087  0.00  0.00    -0.287 OA
ENDBRANCH   1   4
BRANCH   1   6
ATOM      6  CB  LEU A   1       5.936  14.559  19.972  0.00  0.00    +0.025 C 
BRANCH   6   7
ATOM      7  CG  LEU A   1       7.310  14.676  20.634  0.00  0.00    +0.002 C 
ATOM      8  CD2 LEU A   1       7.195  14.278  22.100  0.00  0.00    +0.000 C 
ATOM      9  CD1 LEU A   1       8.350  13.820  19.900  0.00  0.00    +0.000 C 
ENDBRANCH   6   7
ENDBRANCH   1   6
TORSDOF 4
REMARK  Name = ../refined-set-2016/3ujc/3ujc_pocket.pdb
REMARK  163 active torsions:
REMARK  status: ('A' for Active; 'I' for Inactive)
REMARK    1  A    between atoms: _1  and  _3
REMARK    2  A    between atoms: _3  and  _4
REMARK    3  A    between atoms: _3  and  _6
REMARK    4  A    between atoms: _6  and  _7
REMARK    5  A    between atoms: _7  and  _8
REMARK    6  A    between atoms: _13  and  _15
REMARK    7  A    between atoms: _15  and  _16
REMARK    8  A    between atoms: _15  and  _18
REMARK    9  A    between atoms: _18  and  _19
REMARK   10  A    between atoms: _24  and  _25
REMARK   11  A    between atoms: _27  and  _29
REMARK   12  A    between atoms: _29  and  _30
REMARK   13  A    between atoms: _32  and  _34
REMARK   14  A    between atoms: _34  and  _35
REMARK   15  A    between atoms: _34  and  _37
REMARK   16  A    between atoms: _37  and  _38
REMARK   17  A    between atoms: _43  and  _44
REMARK   18  A    between atoms: _46  and  _48
REMARK   19  A    between atoms: _48  and  _49
REMARK   20  A    between atoms: _48  and  _51
REMARK   21  A    between atoms: _51  and  _52
REMARK   22  A    between atoms: _55  and  _57
REMARK   23  A    between atoms: _57  and  _58
REMARK   24  A    between atoms: _57  and  _60
REMARK   25  A    between atoms: _60  and  _61
REMARK   26  A    between atoms: _67  and  _69
REMARK   27  A    between atoms: _69  and  _70
REMARK   28  A    between atoms: _69  and  _72
REMARK   29  A    between atoms: _72  and  _73
REMARK   30  A    between atoms: _78  and  _79
REMARK   31  A    between atoms: _81  and  _83
REMARK   32  A    between atoms: _83  and  _84
REMARK   33  A    between atoms: _83  and  _86
REMARK   34  A    between atoms: _86  and  _87
REMARK   35  A    between atoms: _90  and  _92
REMARK   36  A    between atoms: _92  and  _93
REMARK   37  A    between atoms: _92  and  _95
REMARK   38  A    between atoms: _95  and  _96
REMARK   39  A    between atoms: _98  and  _100
REMARK   40  A    between atoms: _100  and  _101
REMARK   41  A    between atoms: _100  and  _103
REMARK   42  A    between atoms: _103  and  _104
REMARK   43  A    between atoms: _106  and  _108
REMARK   44  A    between atoms: _108  and  _109
REMARK   45  A    between atoms: _111  and  _113
REMARK   46  A    between atoms: _113  and  _114
REMARK   47  A    between atoms: _116  and  _118
REMARK   48  A    between atoms: _118  and  _119
REMARK   49  A    between atoms: _121  and  _123
REMARK   50  A    between atoms: _123  and  _124
REMARK   51  A    between atoms: _126  and  _128
REMARK   52  A    between atoms: _128  and  _129
REMARK   53  A    between atoms: _128  and  _131
REMARK   54  A    between atoms: _131  and  _132
REMARK   55  A    between atoms: _135  and  _137
REMARK   56  A    between atoms: _137  and  _138
REMARK   57  A    between atoms: _137  and  _140
REMARK   58  A    between atoms: _140  and  _141
REMARK   59  A    between atoms: _141  and  _142
REMARK   60  A    between atoms: _142  and  _143
REMARK   61  A    between atoms: _152  and  _154
REMARK   62  A    between atoms: _154  and  _155
REMARK   63  A    between atoms: _154  and  _157
REMARK   64  A    between atoms: _157  and  _158
REMARK   65  A    between atoms: _161  and  _163
REMARK   66  A    between atoms: _163  and  _164
REMARK   67  A    between atoms: _167  and  _169
REMARK   68  A    between atoms: _169  and  _170
REMARK   69  A    between atoms: _169  and  _172
REMARK   70  A    between atoms: _172  and  _173
REMARK   71  A    between atoms: _176  and  _178
REMARK   72  A    between atoms: _178  and  _179
REMARK   73  A    between atoms: _178  and  _181
REMARK   74  A    between atoms: _181  and  _182
REMARK   75  A    between atoms: _185  and  _187
REMARK   76  A    between atoms: _187  and  _188
REMARK   77  A    between atoms: _191  and  _193
REMARK   78  A    between atoms: _193  and  _194
REMARK   79  A    between atoms: _193  and  _196
REMARK   80  A    between atoms: _196  and  _197
REMARK   81  A    between atoms: _200  and  _202
REMARK   82  A    between atoms: _202  and  _203
REMARK   83  A    between atoms: _202  and  _205
REMARK   84  A    between atoms: _205  and  _206
REMARK   85  A    between atoms: _209  and  _211
REMARK   86  A    between atoms: _211  and  _212
REMARK   87  A    between atoms: _211  and  _214
REMARK   88  A    between atoms: _214  and  _215
REMARK   89  A    between atoms: _220  and  _221
REMARK   90  A    between atoms: _223  and  _225
REMARK   91  A    between atoms: _225  and  _226
REMARK   92  A    between atoms: _225  and  _228
REMARK   93  A    between atoms: _228  and  _229
REMARK   94  A    between atoms: _234  and  _235
REMARK   95  A    between atoms: _237  and  _239
REMARK   96  A    between atoms: _239  and  _240
REMARK   97  A    between atoms: _239  and  _242
REMARK   98  A    between atoms: _242  and  _243
REMARK   99  A    between atoms: _243  and  _244
REMARK  100  A    between atoms: _249  and  _251
REMARK  101  A    between atoms: _251  and  _252
REMARK  102  A    between atoms: _251  and  _254
REMARK  103  A    between atoms: _254  and  _255
REMARK  104  A    between atoms: _255  and  _256
REMARK  105  A    between atoms: _256  and  _257
REMARK  106  A    between atoms: _266  and  _268
REMARK  107  A    between atoms: _268  and  _269
REMARK  108  A    between atoms: _268  and  _271
REMARK  109  A    between atoms: _271  and  _272
REMARK  110  A    between atoms: _277  and  _278
REMARK  111  A    between atoms: _280  and  _282
REMARK  112  A    between atoms: _282  and  _283
REMARK  113  A    between atoms: _282  and  _285
REMARK  114  A    between atoms: _285  and  _286
REMARK  115  A    between atoms: _289  and  _291
REMARK  116  A    between atoms: _291  and  _292
REMARK  117  A    between atoms: _291  and  _294
REMARK  118  A    between atoms: _294  and  _295
REMARK  119  A    between atoms: _305  and  _307
REMARK  120  A    between atoms: _307  and  _308
REMARK  121  A    between atoms: _307  and  _310
REMARK  122  A    between atoms: _310  and  _311
REMARK  123  A    between atoms: _314  and  _316
REMARK  124  A    between atoms: _316  and  _317
REMARK  125  A    between atoms: _316  and  _319
REMARK  126  A    between atoms: _319  and  _320
REMARK  127  A    between atoms: _320  and  _321
REMARK  128  A    between atoms: _324  and  _326
REMARK  129  A    between atoms: _326  and  _327
REMARK  130  A    between atoms: _326  and  _329
REMARK  131  A    between atoms: _329  and  _330
REMARK  132  A    between atoms: _332  and  _334
REMARK  133  A    between atoms: _334  and  _335
REMARK  134  A    between atoms: _334  and  _337
REMARK  135  A    between atoms: _337  and  _338
REMARK  136  A    between atoms: _341  and  _343
REMARK  137  A    between atoms: _343  and  _344
REMARK  138  A    between atoms: _346  and  _348
REMARK  139  A    between atoms: _348  and  _349
REMARK  140  A    between atoms: _348  and  _351
REMARK  141  A    between atoms: _351  and  _352
REMARK  142  A    between atoms: _362  and  _364
REMARK  143  A    between atoms: _364  and  _365
REMARK  144  A    between atoms: _364  and  _367
REMARK  145  A    between atoms: _367  and  _368
REMARK  146  A    between atoms: _368  and  _369
REMARK  147  A    between atoms: _369  and  _370
REMARK  148  A    between atoms: _379  and  _381
REMARK  149  A    between atoms: _381  and  _382
REMARK  150  A    between atoms: _381  and  _384
REMARK  151  A    between atoms: _384  and  _385
REMARK  152  A    between atoms: _385  and  _386
REMARK  153  A    between atoms: _386  and  _387
REMARK  154  A    between atoms: _387  and  _388
REMARK  155  A    between atoms: _392  and  _394
REMARK  156  A    between atoms: _394  and  _395
REMARK  157  A    between atoms: _394  and  _397
REMARK  158  A    between atoms: _397  and  _398
REMARK  159  A    between atoms: _398  and  _399
REMARK  160  A    between atoms: _404  and  _406
REMARK  161  A    between atoms: _406  and  _407
REMARK  162  A    between atoms: _406  and  _409
REMARK  163  A    between atoms: _409  and  _410
REMARK                            x       y       z     vdW  Elec       q    Type
REMARK                         _______ _______ _______ _____ _____    ______ ____
ROOT
ATOM      1  CA  GLU A   1       5.468  14.811  13.642  0.00  0.00    +0.134 C 
ENDROOT
BRANCH   1   2
ATOM      2  N   GLU A   1       4.539  15.721  14.303  0.00  0.00    -0.239 NA
ATOM      3  H   GLU A   1       4.809  16.144  15.214  0.00  0.00    +0.142 HD
ENDBRANCH   1   2
BRANCH   1   4
ATOM      4  C   GLU A   1       4.876  13.406  13.470  0.00  0.00    +0.224 C 
ATOM      5  O   GLU A   1       5.017  12.782  12.417  0.00  0.00    -0.287 OA
ENDBRANCH   1   4
BRANCH   1   6
ATOM      6  CB  GLU A   1       6.768  14.752  14.446  0.00  0.00    +0.037 C 
BRANCH   6   7
ATOM      7  CG  GLU A   1       7.616  16.019  14.278  0.00  0.00    +0.116 C 
BRANCH   7   8
ATOM      8  CD  GLU A   1       8.611  16.273  15.401  0.00  0.00    +0.365 C 
ATOM      9  OE2 GLU A   1       8.705  15.459  16.350  0.00  0.00    -0.246 OA
ATOM     10  OE1 GLU A   1       9.317  17.303  15.323  0.00  0.00    -0.246 OA
ENDBRANCH   7   8
ENDBRANCH   6   7
ENDBRANCH   1   6
TORSDOF 5
REMARK  Name = ../refined-set-2016/3ujc/3ujc_pocket.pdb
REMARK  163 active torsions:
REMARK  status: ('A' for Active; 'I' for Inactive)
REMARK    1  A    between atoms: _1  and  _3
REMARK    2  A    between atoms: _3  and  _4
REMARK    3  A    between atoms: _3  and  _6
REMARK    4  A    between atoms: _6  and  _7
REMARK    5  A    between atoms: _7  and  _8
REMARK    6  A    between atoms: _13  and  _15
REMARK    7  A    between atoms: _15  and  _16
REMARK    8  A    between atoms: _15  and  _18
REMARK    9  A    between atoms: _18  and  _19
REMARK   10  A    between atoms: _24  and  _25
REMARK   11  A    between atoms: _27  and  _29
REMARK   12  A    between atoms: _29  and  _30
REMARK   13  A    between atoms: _32  and  _34
REMARK   14  A    between atoms: _34  and  _35
REMARK   15  A    between atoms: _34  and  _37
REMARK   16  A    between atoms: _37  and  _38
REMARK   17  A    between atoms: _43  and  _44
REMARK   18  A    between atoms: _46  and  _48
REMARK   19  A    between atoms: _48  and  _49
REMARK   20  A    between atoms: _48  and  _51
REMARK   21  A    between atoms: _51  and  _52
REMARK   22  A    between atoms: _55  and  _57
REMARK   23  A    between atoms: _57  and  _58
REMARK   24  A    between atoms: _57  and  _60
REMARK   25  A    between atoms: _60  and  _61
REMARK   26  A    between atoms: _67  and  _69
REMARK   27  A    between atoms: _69  and  _70
REMARK   28  A    between atoms: _69  and  _72
REMARK   29  A    between atoms: _72  and  _73
REMARK   30  A    between atoms: _78  and  _79
REMARK   31  A    between atoms: _81  and  _83
REMARK   32  A    between atoms: _83  and  _84
REMARK   33  A    between atoms: _83  and  _86
REMARK   34  A    between atoms: _86  and  _87
REMARK   35  A    between atoms: _90  and  _92
REMARK   36  A    between atoms: _92  and  _93
REMARK   37  A    between atoms: _92  and  _95
REMARK   38  A    between atoms: _95  and  _96
REMARK   39  A    between atoms: _98  and  _100
REMARK   40  A    between atoms: _100  and  _101
REMARK   41  A    between atoms: _100  and  _103
REMARK   42  A    between atoms: _103  and  _104
REMARK   43  A    between atoms: _106  and  _108
REMARK   44  A    between atoms: _108  and  _109
REMARK   45  A    between atoms: _111  and  _113
REMARK   46  A    between atoms: _113  and  _114
REMARK   47  A    between atoms: _116  and  _118
REMARK   48  A    between atoms: _118  and  _119
REMARK   49  A    between atoms: _121  and  _123
REMARK   50  A    between atoms: _123  and  _124
REMARK   51  A    between atoms: _126  and  _128
REMARK   52  A    between atoms: _128  and  _129
REMARK   53  A    between atoms: _128  and  _131
REMARK   54  A    between atoms: _131  and  _132
REMARK   55  A    between atoms: _135  and  _137
REMARK   56  A    between atoms: _137  and  _138
REMARK   57  A    between atoms: _137  and  _140
REMARK   58  A    between atoms: _140  and  _141
REMARK   59  A    between atoms: _141  and  _142
REMARK   60  A    between atoms: _142  and  _143
REMARK   61  A    between atoms: _152  and  _154
REMARK   62  A    between atoms: _154  and  _155
REMARK   63  A    between atoms: _154  and  _157
REMARK   64  A    between atoms: _157  and  _158
REMARK   65  A    between atoms: _161  and  _163
REMARK   66  A    between atoms: _163  and  _164
REMARK   67  A    between atoms: _167  and  _169
REMARK   68  A    between atoms: _169  and  _170
REMARK   69  A    between atoms: _169  and  _172
REMARK   70  A    between atoms: _172  and  _173
REMARK   71  A    between atoms: _176  and  _178
REMARK   72  A    between atoms: _178  and  _179
REMARK   73  A    between atoms: _178  and  _181
REMARK   74  A    between atoms: _181  and  _182
REMARK   75  A    between atoms: _185  and  _187
REMARK   76  A    between atoms: _187  and  _188
REMARK   77  A    between atoms: _191  and  _193
REMARK   78  A    between atoms: _193  and  _194
REMARK   79  A    between atoms: _193  and  _196
REMARK   80  A    between atoms: _196  and  _197
REMARK   81  A    between atoms: _200  and  _202
REMARK   82  A    between atoms: _202  and  _203
REMARK   83  A    between atoms: _202  and  _205
REMARK   84  A    between atoms: _205  and  _206
REMARK   85  A    between atoms: _209  and  _211
REMARK   86  A    between atoms: _211  and  _212
REMARK   87  A    between atoms: _211  and  _214
REMARK   88  A    between atoms: _214  and  _215
REMARK   89  A    between atoms: _220  and  _221
REMARK   90  A    between atoms: _223  and  _225
REMARK   91  A    between atoms: _225  and  _226
REMARK   92  A    between atoms: _225  and  _228
REMARK   93  A    between atoms: _228  and  _229
REMARK   94  A    between atoms: _234  and  _235
REMARK   95  A    between atoms: _237  and  _239
REMARK   96  A    between atoms: _239  and  _240
REMARK   97  A    between atoms: _239  and  _242
REMARK   98  A    between atoms: _242  and  _243
REMARK   99  A    between atoms: _243  and  _244
REMARK  100  A    between atoms: _249  and  _251
REMARK  101  A    between atoms: _251  and  _252
REMARK  102  A    between atoms: _251  and  _254
REMARK  103  A    between atoms: _254  and  _255
REMARK  104  A    between atoms: _255  and  _256
REMARK  105  A    between atoms: _256  and  _257
REMARK  106  A    between atoms: _266  and  _268
REMARK  107  A    between atoms: _268  and  _269
REMARK  108  A    between atoms: _268  and  _271
REMARK  109  A    between atoms: _271  and  _272
REMARK  110  A    between atoms: _277  and  _278
REMARK  111  A    between atoms: _280  and  _282
REMARK  112  A    between atoms: _282  and  _283
REMARK  113  A    between atoms: _282  and  _285
REMARK  114  A    between atoms: _285  and  _286
REMARK  115  A    between atoms: _289  and  _291
REMARK  116  A    between atoms: _291  and  _292
REMARK  117  A    between atoms: _291  and  _294
REMARK  118  A    between atoms: _294  and  _295
REMARK  119  A    between atoms: _305  and  _307
REMARK  120  A    between atoms: _307  and  _308
REMARK  121  A    between atoms: _307  and  _310
REMARK  122  A    between atoms: _310  and  _311
REMARK  123  A    between atoms: _314  and  _316
REMARK  124  A    between atoms: _316  and  _317
REMARK  125  A    between atoms: _316  and  _319
REMARK  126  A    between atoms: _319  and  _320
REMARK  127  A    between atoms: _320  and  _321
REMARK  128  A    between atoms: _324  and  _326
REMARK  129  A    between atoms: _326  and  _327
REMARK  130  A    between atoms: _326  and  _329
REMARK  131  A    between atoms: _329  and  _330
REMARK  132  A    between atoms: _332  and  _334
REMARK  133  A    between atoms: _334  and  _335
REMARK  134  A    between atoms: _334  and  _337
REMARK  135  A    between atoms: _337  and  _338
REMARK  136  A    between atoms: _341  and  _343
REMARK  137  A    between atoms: _343  and  _344
REMARK  138  A    between atoms: _346  and  _348
REMARK  139  A    between atoms: _348  and  _349
REMARK  140  A    between atoms: _348  and  _351
REMARK  141  A    between atoms: _351  and  _352
REMARK  142  A    between atoms: _362  and  _364
REMARK  143  A    between atoms: _364  and  _365
REMARK  144  A    between atoms: _364  and  _367
REMARK  145  A    between atoms: _367  and  _368
REMARK  146  A    between atoms: _368  and  _369
REMARK  147  A    between atoms: _369  and  _370
REMARK  148  A    between atoms: _379  and  _381
REMARK  149  A    between atoms: _381  and  _382
REMARK  150  A    between atoms: _381  and  _384
REMARK  151  A    between atoms: _384  and  _385
REMARK  152  A    between atoms: _385  and  _386
REMARK  153  A    between atoms: _386  and  _387
REMARK  154  A    between atoms: _387  and  _388
REMARK  155  A    between atoms: _392  and  _394
REMARK  156  A    between atoms: _394  and  _395
REMARK  157  A    between atoms: _394  and  _397
REMARK  158  A    between atoms: _397  and  _398
REMARK  159  A    between atoms: _398  and  _399
REMARK  160  A    between atoms: _404  and  _406
REMARK  161  A    between atoms: _406  and  _407
REMARK  162  A    between atoms: _406  and  _409
REMARK  163  A    between atoms: _409  and  _410
REMARK                            x       y       z     vdW  Elec       q    Type
REMARK                         _______ _______ _______ _____ _____    ______ ____
ROOT
ATOM      1  C   SER A   1      10.552   3.075  15.483  0.00  0.00    +0.241 C 
ATOM      2  O   SER A   1      10.487   3.541  16.628  0.00  0.00    -0.274 OA
ATOM      3  N   LEU A   2      10.431   3.827  14.393  0.00  0.00    -0.298 N 
ATOM      4  H   LEU A   2      10.485   3.379  13.456  0.00  0.00    +0.150 HD
ENDROOT
BRANCH   1   5
ATOM      5  CA  SER A   1      10.777   1.582  15.260  0.00  0.00    +0.174 C 
BRANCH   5   6
ATOM      6  N   SER A   1       9.884   1.063  14.233  0.00  0.00    -0.236 NA
ATOM      7  H   SER A   1      10.285   0.629  13.377  0.00  0.00    +0.142 HD
ENDBRANCH   5   6
BRANCH   5   8
ATOM      8  CB  SER A   1      12.236   1.314  14.889  0.00  0.00    +0.163 C 
BRANCH   8   9
ATOM      9  OG  SER A   1      12.497  -0.077  14.853  0.00  0.00    -0.380 OA
ATOM     10  H   SER A   1      11.912  -0.504  14.179  0.00  0.00    +0.211 HD
ENDBRANCH   8   9
ENDBRANCH   5   8
ENDBRANCH   1   5
BRANCH   3  11
ATOM     11  CA  LEU A   2      10.225   5.263  14.485  0.00  0.00    +0.137 C 
BRANCH  11  12
ATOM     12  C   LEU A   2       8.858   5.577  15.101  0.00  0.00    +0.227 C 
ATOM     13  O   LEU A   2       8.735   6.417  15.994  0.00  0.00    -0.286 OA
ENDBRANCH  11  12
BRANCH  11  14
ATOM     14  CB  LEU A   2      10.351   5.890  13.096  0.00  0.00    +0.028 C 
BRANCH  14  15
ATOM     15  CG  LEU A   2      10.459   7.408  13.062  0.00  0.00    +0.002 C 
ATOM     16  CD2 LEU A   2      11.766   7.870  13.699  0.00  0.00    +0.000 C 
ATOM     17  CD1 LEU A   2      10.355   7.892  11.617  0.00  0.00    +0.000 C 
ENDBRANCH  14  15
ENDBRANCH  11  14
ENDBRANCH   3  11
TORSDOF 8
REMARK  Name = ../refined-set-2016/3ujc/3ujc_pocket.pdb
REMARK  163 active torsions:
REMARK  status: ('A' for Active; 'I' for Inactive)
REMARK    1  A    between atoms: _1  and  _3
REMARK    2  A    between atoms: _3  and  _4
REMARK    3  A    between atoms: _3  and  _6
REMARK    4  A    between atoms: _6  and  _7
REMARK    5  A    between atoms: _7  and  _8
REMARK    6  A    between atoms: _13  and  _15
REMARK    7  A    between atoms: _15  and  _16
REMARK    8  A    between atoms: _15  and  _18
REMARK    9  A    between atoms: _18  and  _19
REMARK   10  A    between atoms: _24  and  _25
REMARK   11  A    between atoms: _27  and  _29
REMARK   12  A    between atoms: _29  and  _30
REMARK   13  A    between atoms: _32  and  _34
REMARK   14  A    between atoms: _34  and  _35
REMARK   15  A    between atoms: _34  and  _37
REMARK   16  A    between atoms: _37  and  _38
REMARK   17  A    between atoms: _43  and  _44
REMARK   18  A    between atoms: _46  and  _48
REMARK   19  A    between atoms: _48  and  _49
REMARK   20  A    between atoms: _48  and  _51
REMARK   21  A    between atoms: _51  and  _52
REMARK   22  A    between atoms: _55  and  _57
REMARK   23  A    between atoms: _57  and  _58
REMARK   24  A    between atoms: _57  and  _60
REMARK   25  A    between atoms: _60  and  _61
REMARK   26  A    between atoms: _67  and  _69
REMARK   27  A    between atoms: _69  and  _70
REMARK   28  A    between atoms: _69  and  _72
REMARK   29  A    between atoms: _72  and  _73
REMARK   30  A    between atoms: _78  and  _79
REMARK   31  A    between atoms: _81  and  _83
REMARK   32  A    between atoms: _83  and  _84
REMARK   33  A    between atoms: _83  and  _86
REMARK   34  A    between atoms: _86  and  _87
REMARK   35  A    between atoms: _90  and  _92
REMARK   36  A    between atoms: _92  and  _93
REMARK   37  A    between atoms: _92  and  _95
REMARK   38  A    between atoms: _95  and  _96
REMARK   39  A    between atoms: _98  and  _100
REMARK   40  A    between atoms: _100  and  _101
REMARK   41  A    between atoms: _100  and  _103
REMARK   42  A    between atoms: _103  and  _104
REMARK   43  A    between atoms: _106  and  _108
REMARK   44  A    between atoms: _108  and  _109
REMARK   45  A    between atoms: _111  and  _113
REMARK   46  A    between atoms: _113  and  _114
REMARK   47  A    between atoms: _116  and  _118
REMARK   48  A    between atoms: _118  and  _119
REMARK   49  A    between atoms: _121  and  _123
REMARK   50  A    between atoms: _123  and  _124
REMARK   51  A    between atoms: _126  and  _128
REMARK   52  A    between atoms: _128  and  _129
REMARK   53  A    between atoms: _128  and  _131
REMARK   54  A    between atoms: _131  and  _132
REMARK   55  A    between atoms: _135  and  _137
REMARK   56  A    between atoms: _137  and  _138
REMARK   57  A    between atoms: _137  and  _140
REMARK   58  A    between atoms: _140  and  _141
REMARK   59  A    between atoms: _141  and  _142
REMARK   60  A    between atoms: _142  and  _143
REMARK   61  A    between atoms: _152  and  _154
REMARK   62  A    between atoms: _154  and  _155
REMARK   63  A    between atoms: _154  and  _157
REMARK   64  A    between atoms: _157  and  _158
REMARK   65  A    between atoms: _161  and  _163
REMARK   66  A    between atoms: _163  and  _164
REMARK   67  A    between atoms: _167  and  _169
REMARK   68  A    between atoms: _169  and  _170
REMARK   69  A    between atoms: _169  and  _172
REMARK   70  A    between atoms: _172  and  _173
REMARK   71  A    between atoms: _176  and  _178
REMARK   72  A    between atoms: _178  and  _179
REMARK   73  A    between atoms: _178  and  _181
REMARK   74  A    between atoms: _181  and  _182
REMARK   75  A    between atoms: _185  and  _187
REMARK   76  A    between atoms: _187  and  _188
REMARK   77  A    between atoms: _191  and  _193
REMARK   78  A    between atoms: _193  and  _194
REMARK   79  A    between atoms: _193  and  _196
REMARK   80  A    between atoms: _196  and  _197
REMARK   81  A    between atoms: _200  and  _202
REMARK   82  A    between atoms: _202  and  _203
REMARK   83  A    between atoms: _202  and  _205
REMARK   84  A    between atoms: _205  and  _206
REMARK   85  A    between atoms: _209  and  _211
REMARK   86  A    between atoms: _211  and  _212
REMARK   87  A    between atoms: _211  and  _214
REMARK   88  A    between atoms: _214  and  _215
REMARK   89  A    between atoms: _220  and  _221
REMARK   90  A    between atoms: _223  and  _225
REMARK   91  A    between atoms: _225  and  _226
REMARK   92  A    between atoms: _225  and  _228
REMARK   93  A    between atoms: _228  and  _229
REMARK   94  A    between atoms: _234  and  _235
REMARK   95  A    between atoms: _237  and  _239
REMARK   96  A    between atoms: _239  and  _240
REMARK   97  A    between atoms: _239  and  _242
REMARK   98  A    between atoms: _242  and  _243
REMARK   99  A    between atoms: _243  and  _244
REMARK  100  A    between atoms: _249  and  _251
REMARK  101  A    between atoms: _251  and  _252
REMARK  102  A    between atoms: _251  and  _254
REMARK  103  A    between atoms: _254  and  _255
REMARK  104  A    between atoms: _255  and  _256
REMARK  105  A    between atoms: _256  and  _257
REMARK  106  A    between atoms: _266  and  _268
REMARK  107  A    between atoms: _268  and  _269
REMARK  108  A    between atoms: _268  and  _271
REMARK  109  A    between atoms: _271  and  _272
REMARK  110  A    between atoms: _277  and  _278
REMARK  111  A    between atoms: _280  and  _282
REMARK  112  A    between atoms: _282  and  _283
REMARK  113  A    between atoms: _282  and  _285
REMARK  114  A    between atoms: _285  and  _286
REMARK  115  A    between atoms: _289  and  _291
REMARK  116  A    between atoms: _291  and  _292
REMARK  117  A    between atoms: _291  and  _294
REMARK  118  A    between atoms: _294  and  _295
REMARK  119  A    between atoms: _305  and  _307
REMARK  120  A    between atoms: _307  and  _308
REMARK  121  A    between atoms: _307  and  _310
REMARK  122  A    between atoms: _310  and  _311
REMARK  123  A    between atoms: _314  and  _316
REMARK  124  A    between atoms: _316  and  _317
REMARK  125  A    between atoms: _316  and  _319
REMARK  126  A    between atoms: _319  and  _320
REMARK  127  A    between atoms: _320  and  _321
REMARK  128  A    between atoms: _324  and  _326
REMARK  129  A    between atoms: _326  and  _327
REMARK  130  A    between atoms: _326  and  _329
REMARK  131  A    between atoms: _329  and  _330
REMARK  132  A    between atoms: _332  and  _334
REMARK  133  A    between atoms: _334  and  _335
REMARK  134  A    between atoms: _334  and  _337
REMARK  135  A    between atoms: _337  and  _338
REMARK  136  A    between atoms: _341  and  _343
REMARK  137  A    between atoms: _343  and  _344
REMARK  138  A    between atoms: _346  and  _348
REMARK  139  A    between atoms: _348  and  _349
REMARK  140  A    between atoms: _348  and  _351
REMARK  141  A    between atoms: _351  and  _352
REMARK  142  A    between atoms: _362  and  _364
REMARK  143  A    between atoms: _364  and  _365
REMARK  144  A    between atoms: _364  and  _367
REMARK  145  A    between atoms: _367  and  _368
REMARK  146  A    between atoms: _368  and  _369
REMARK  147  A    between atoms: _369  and  _370
REMARK  148  A    between atoms: _379  and  _381
REMARK  149  A    between atoms: _381  and  _382
REMARK  150  A    between atoms: _381  and  _384
REMARK  151  A    between atoms: _384  and  _385
REMARK  152  A    between atoms: _385  and  _386
REMARK  153  A    between atoms: _386  and  _387
REMARK  154  A    between atoms: _387  and  _388
REMARK  155  A    between atoms: _392  and  _394
REMARK  156  A    between atoms: _394  and  _395
REMARK  157  A    between atoms: _394  and  _397
REMARK  158  A    between atoms: _397  and  _398
REMARK  159  A    between atoms: _398  and  _399
REMARK  160  A    between atoms: _404  and  _406
REMARK  161  A    between atoms: _406  and  _407
REMARK  162  A    between atoms: _406  and  _409
REMARK  163  A    between atoms: _409  and  _410
REMARK                            x       y       z     vdW  Elec       q    Type
REMARK                         _______ _______ _______ _____ _____    ______ ____
ROOT
ATOM      1  CB  TRP A   2       6.979   9.323  17.562  0.00  0.00    +0.056 C 
ENDROOT
BRANCH   1   2
ATOM      2  CG  TRP A   2       7.775  10.513  17.115  0.00  0.00    -0.002 A 
ATOM      3  CD1 TRP A   2       7.320  11.795  16.973  0.00  0.00    +0.068 A 
ATOM      4  NE1 TRP A   2       8.340  12.618  16.557  0.00  0.00    -0.352 N 
ATOM      5  CE2 TRP A   2       9.490  11.880  16.442  0.00  0.00    +0.056 A 
ATOM      6  CZ2 TRP A   2      10.771  12.273  16.036  0.00  0.00    +0.017 A 
ATOM      7  CH2 TRP A   2      11.745  11.309  15.998  0.00  0.00    +0.001 A 
ATOM      8  CZ3 TRP A   2      11.465   9.975  16.342  0.00  0.00    +0.000 A 
ATOM      9  CE3 TRP A   2      10.188   9.582  16.732  0.00  0.00    +0.001 A 
ATOM     10  HE1 TRP A   2       8.253  13.636  16.361  0.00  0.00    +0.166 HD
ATOM     11  CD2 TRP A   2       9.176  10.549  16.780  0.00  0.00    +0.013 A 
ENDBRANCH   1   2
BRANCH   1  12
ATOM     12  CA  TRP A   2       7.456   8.747  18.895  0.00  0.00    +0.141 C 
BRANCH  12  15
ATOM     13  C   GLY A   1       8.970   7.039  19.704  0.00  0.00    +0.240 C 
ATOM     14  O   GLY A   1       9.053   7.611  20.799  0.00  0.00    -0.274 OA
ATOM     15  N   TRP A   2       8.238   7.529  18.704  0.00  0.00    -0.298 N 
ATOM     16  H   TRP A   2       8.224   7.042  17.785  0.00  0.00    +0.150 HD
BRANCH  13  17
ATOM     17  CA  GLY A   1       9.703   5.729  19.446  0.00  0.00    +0.169 C 
BRANCH  17  18
ATOM     18  N   GLY A   1       8.863   4.788  18.728  0.00  0.00    -0.236 NA
ATOM     19  H   GLY A   1       9.142   4.474  17.776  0.00  0.00    +0.142 HD
ENDBRANCH  17  18
ENDBRANCH  13  17
ENDBRANCH  12  15
BRANCH  12  20
ATOM     20  C   TRP A   2       6.281   8.512  19.837  0.00  0.00    +0.227 C 
ATOM     21  O   TRP A   2       5.963   9.362  20.659  0.00  0.00    -0.286 OA
ENDBRANCH  12  20
ENDBRANCH   1  12
TORSDOF 6
REMARK  Name = ../refined-set-2016/3ujc/3ujc_pocket.pdb
REMARK  163 active torsions:
REMARK  status: ('A' for Active; 'I' for Inactive)
REMARK    1  A    between atoms: _1  and  _3
REMARK    2  A    between atoms: _3  and  _4
REMARK    3  A    between atoms: _3  and  _6
REMARK    4  A    between atoms: _6  and  _7
REMARK    5  A    between atoms: _7  and  _8
REMARK    6  A    between atoms: _13  and  _15
REMARK    7  A    between atoms: _15  and  _16
REMARK    8  A    between atoms: _15  and  _18
REMARK    9  A    between atoms: _18  and  _19
REMARK   10  A    between atoms: _24  and  _25
REMARK   11  A    between atoms: _27  and  _29
REMARK   12  A    between atoms: _29  and  _30
REMARK   13  A    between atoms: _32  and  _34
REMARK   14  A    between atoms: _34  and  _35
REMARK   15  A    between atoms: _34  and  _37
REMARK   16  A    between atoms: _37  and  _38
REMARK   17  A    between atoms: _43  and  _44
REMARK   18  A    between atoms: _46  and  _48
REMARK   19  A    between atoms: _48  and  _49
REMARK   20  A    between atoms: _48  and  _51
REMARK   21  A    between atoms: _51  and  _52
REMARK   22  A    between atoms: _55  and  _57
REMARK   23  A    between atoms: _57  and  _58
REMARK   24  A    between atoms: _57  and  _60
REMARK   25  A    between atoms: _60  and  _61
REMARK   26  A    between atoms: _67  and  _69
REMARK   27  A    between atoms: _69  and  _70
REMARK   28  A    between atoms: _69  and  _72
REMARK   29  A    between atoms: _72  and  _73
REMARK   30  A    between atoms: _78  and  _79
REMARK   31  A    between atoms: _81  and  _83
REMARK   32  A    between atoms: _83  and  _84
REMARK   33  A    between atoms: _83  and  _86
REMARK   34  A    between atoms: _86  and  _87
REMARK   35  A    between atoms: _90  and  _92
REMARK   36  A    between atoms: _92  and  _93
REMARK   37  A    between atoms: _92  and  _95
REMARK   38  A    between atoms: _95  and  _96
REMARK   39  A    between atoms: _98  and  _100
REMARK   40  A    between atoms: _100  and  _101
REMARK   41  A    between atoms: _100  and  _103
REMARK   42  A    between atoms: _103  and  _104
REMARK   43  A    between atoms: _106  and  _108
REMARK   44  A    between atoms: _108  and  _109
REMARK   45  A    between atoms: _111  and  _113
REMARK   46  A    between atoms: _113  and  _114
REMARK   47  A    between atoms: _116  and  _118
REMARK   48  A    between atoms: _118  and  _119
REMARK   49  A    between atoms: _121  and  _123
REMARK   50  A    between atoms: _123  and  _124
REMARK   51  A    between atoms: _126  and  _128
REMARK   52  A    between atoms: _128  and  _129
REMARK   53  A    between atoms: _128  and  _131
REMARK   54  A    between atoms: _131  and  _132
REMARK   55  A    between atoms: _135  and  _137
REMARK   56  A    between atoms: _137  and  _138
REMARK   57  A    between atoms: _137  and  _140
REMARK   58  A    between atoms: _140  and  _141
REMARK   59  A    between atoms: _141  and  _142
REMARK   60  A    between atoms: _142  and  _143
REMARK   61  A    between atoms: _152  and  _154
REMARK   62  A    between atoms: _154  and  _155
REMARK   63  A    between atoms: _154  and  _157
REMARK   64  A    between atoms: _157  and  _158
REMARK   65  A    between atoms: _161  and  _163
REMARK   66  A    between atoms: _163  and  _164
REMARK   67  A    between atoms: _167  and  _169
REMARK   68  A    between atoms: _169  and  _170
REMARK   69  A    between atoms: _169  and  _172
REMARK   70  A    between atoms: _172  and  _173
REMARK   71  A    between atoms: _176  and  _178
REMARK   72  A    between atoms: _178  and  _179
REMARK   73  A    between atoms: _178  and  _181
REMARK   74  A    between atoms: _181  and  _182
REMARK   75  A    between atoms: _185  and  _187
REMARK   76  A    between atoms: _187  and  _188
REMARK   77  A    between atoms: _191  and  _193
REMARK   78  A    between atoms: _193  and  _194
REMARK   79  A    between atoms: _193  and  _196
REMARK   80  A    between atoms: _196  and  _197
REMARK   81  A    between atoms: _200  and  _202
REMARK   82  A    between atoms: _202  and  _203
REMARK   83  A    between atoms: _202  and  _205
REMARK   84  A    between atoms: _205  and  _206
REMARK   85  A    between atoms: _209  and  _211
REMARK   86  A    between atoms: _211  and  _212
REMARK   87  A    between atoms: _211  and  _214
REMARK   88  A    between atoms: _214  and  _215
REMARK   89  A    between atoms: _220  and  _221
REMARK   90  A    between atoms: _223  and  _225
REMARK   91  A    between atoms: _225  and  _226
REMARK   92  A    between atoms: _225  and  _228
REMARK   93  A    between atoms: _228  and  _229
REMARK   94  A    between atoms: _234  and  _235
REMARK   95  A    between atoms: _237  and  _239
REMARK   96  A    between atoms: _239  and  _240
REMARK   97  A    between atoms: _239  and  _242
REMARK   98  A    between atoms: _242  and  _243
REMARK   99  A    between atoms: _243  and  _244
REMARK  100  A    between atoms: _249  and  _251
REMARK  101  A    between atoms: _251  and  _252
REMARK  102  A    between atoms: _251  and  _254
REMARK  103  A    between atoms: _254  and  _255
REMARK  104  A    between atoms: _255  and  _256
REMARK  105  A    between atoms: _256  and  _257
REMARK  106  A    between atoms: _266  and  _268
REMARK  107  A    between atoms: _268  and  _269
REMARK  108  A    between atoms: _268  and  _271
REMARK  109  A    between atoms: _271  and  _272
REMARK  110  A    between atoms: _277  and  _278
REMARK  111  A    between atoms: _280  and  _282
REMARK  112  A    between atoms: _282  and  _283
REMARK  113  A    between atoms: _282  and  _285
REMARK  114  A    between atoms: _285  and  _286
REMARK  115  A    between atoms: _289  and  _291
REMARK  116  A    between atoms: _291  and  _292
REMARK  117  A    between atoms: _291  and  _294
REMARK  118  A    between atoms: _294  and  _295
REMARK  119  A    between atoms: _305  and  _307
REMARK  120  A    between atoms: _307  and  _308
REMARK  121  A    between atoms: _307  and  _310
REMARK  122  A    between atoms: _310  and  _311
REMARK  123  A    between atoms: _314  and  _316
REMARK  124  A    between atoms: _316  and  _317
REMARK  125  A    between atoms: _316  and  _319
REMARK  126  A    between atoms: _319  and  _320
REMARK  127  A    between atoms: _320  and  _321
REMARK  128  A    between atoms: _324  and  _326
REMARK  129  A    between atoms: _326  and  _327
REMARK  130  A    between atoms: _326  and  _329
REMARK  131  A    between atoms: _329  and  _330
REMARK  132  A    between atoms: _332  and  _334
REMARK  133  A    between atoms: _334  and  _335
REMARK  134  A    between atoms: _334  and  _337
REMARK  135  A    between atoms: _337  and  _338
REMARK  136  A    between atoms: _341  and  _343
REMARK  137  A    between atoms: _343  and  _344
REMARK  138  A    between atoms: _346  and  _348
REMARK  139  A    between atoms: _348  and  _349
REMARK  140  A    between atoms: _348  and  _351
REMARK  141  A    between atoms: _351  and  _352
REMARK  142  A    between atoms: _362  and  _364
REMARK  143  A    between atoms: _364  and  _365
REMARK  144  A    between atoms: _364  and  _367
REMARK  145  A    between atoms: _367  and  _368
REMARK  146  A    between atoms: _368  and  _369
REMARK  147  A    between atoms: _369  and  _370
REMARK  148  A    between atoms: _379  and  _381
REMARK  149  A    between atoms: _381  and  _382
REMARK  150  A    between atoms: _381  and  _384
REMARK  151  A    between atoms: _384  and  _385
REMARK  152  A    between atoms: _385  and  _386
REMARK  153  A    between atoms: _386  and  _387
REMARK  154  A    between atoms: _387  and  _388
REMARK  155  A    between atoms: _392  and  _394
REMARK  156  A    between atoms: _394  and  _395
REMARK  157  A    between atoms: _394  and  _397
REMARK  158  A    between atoms: _397  and  _398
REMARK  159  A    between atoms: _398  and  _399
REMARK  160  A    between atoms: _404  and  _406
REMARK  161  A    between atoms: _406  and  _407
REMARK  162  A    between atoms: _406  and  _409
REMARK  163  A    between atoms: _409  and  _410
REMARK                            x       y       z     vdW  Elec       q    Type
REMARK                         _______ _______ _______ _____ _____    ______ ____
ROOT
ATOM      1  CA  ARG A   1       6.679   6.565  23.750  0.00  0.00    +0.145 C 
ENDROOT
BRANCH   1   2
ATOM      2  C   ARG A   1       6.992   7.996  24.191  0.00  0.00    +0.238 C 
ATOM      3  O   ARG A   1       6.682   8.387  25.317  0.00  0.00    -0.274 OA
ATOM      4  N   LYS A   2       7.628   8.780  23.323  0.00  0.00    -0.298 N 
ATOM      5  H   LYS A   2       7.916   8.407  22.396  0.00  0.00    +0.150 HD
BRANCH   4   6
ATOM      6  CA  LYS A   2       7.919  10.167  23.679  0.00  0.00    +0.137 C 
BRANCH   6   7
ATOM      7  C   LYS A   2       6.654  10.974  23.959  0.00  0.00    +0.227 C 
ATOM      8  O   LYS A   2       6.636  11.821  24.850  0.00  0.00    -0.286 OA
ENDBRANCH   6   7
BRANCH   6   9
ATOM      9  CB  LYS A   2       8.776  10.857  22.615  0.00  0.00    +0.028 C 
BRANCH   9  10
ATOM     10  CG  LYS A   2      10.228  10.401  22.604  0.00  0.00    -0.000 C 
BRANCH  10  11
ATOM     11  CD  LYS A   2      11.090  11.174  21.601  0.00  0.00    -0.024 C 
BRANCH  11  12
ATOM     12  CE  LYS A   2      10.726  10.835  20.165  0.00  0.00    -0.086 C 
BRANCH  12  13
ATOM     13  NZ  LYS A   2      11.659  11.512  19.227  0.00  0.00    +0.380 N 
ATOM     14  HZ1 LYS A   2      12.631  11.194  19.417  0.00  0.00    -0.089 HD
ATOM     15  HZ2 LYS A   2      11.597  12.541  19.361  0.00  0.00    -0.089 HD
ATOM     16  HZ3 LYS A   2      11.400  11.272  18.249  0.00  0.00    -0.089 HD
ENDBRANCH  12  13
ENDBRANCH  11  12
ENDBRANCH  10  11
ENDBRANCH   9  10
ENDBRANCH   6   9
ENDBRANCH   4   6
ENDBRANCH   1   2
BRANCH   1  17
ATOM     17  N   ARG A   1       6.190   6.537  22.375  0.00  0.00    -0.238 NA
ATOM     18  H   ARG A   1       6.754   6.087  21.626  0.00  0.00    +0.142 HD
ENDBRANCH   1  17
BRANCH   1  19
ATOM     19  CB  ARG A   1       7.898   5.662  23.978  0.00  0.00    +0.030 C 
BRANCH  19  20
ATOM     20  CG  ARG A   1       8.242   5.548  25.472  0.00  0.00    +0.045 C 
BRANCH  20  21
ATOM     21  CD  ARG A   1       9.706   5.190  25.778  0.00  0.00    +0.174 C 
BRANCH  21  22
ATOM     22  NE  ARG A   1      10.620   6.052  25.038  0.00  0.00    -0.265 N 
ATOM     23  CZ  ARG A   1      10.878   7.326  25.324  0.00  0.00    +0.342 C 
ATOM     24  NH2 ARG A   1      10.353   7.911  26.398  0.00  0.00    -0.292 N 
ATOM     25 HH21 ARG A   1       9.729   7.371  27.031  0.00  0.00    +0.255 HD
ATOM     26 HH22 ARG A   1      10.567   8.908  26.604  0.00  0.00    +0.255 HD
ATOM     27  NH1 ARG A   1      11.689   8.019  24.531  0.00  0.00    -0.292 N 
ATOM     28 HH11 ARG A   1      11.898   9.015  24.744  0.00  0.00    +0.255 HD
ATOM     29 HH12 ARG A   1      12.114   7.565  23.698  0.00  0.00    +0.255 HD
ATOM     30  HE  ARG A   1      11.110   5.637  24.220  0.00  0.00    +0.259 HD
ENDBRANCH  21  22
ENDBRANCH  20  21
ENDBRANCH  19  20
ENDBRANCH   1  19
TORSDOF 13
REMARK  Name = ../refined-set-2016/3ujc/3ujc_pocket.pdb
REMARK  163 active torsions:
REMARK  status: ('A' for Active; 'I' for Inactive)
REMARK    1  A    between atoms: _1  and  _3
REMARK    2  A    between atoms: _3  and  _4
REMARK    3  A    between atoms: _3  and  _6
REMARK    4  A    between atoms: _6  and  _7
REMARK    5  A    between atoms: _7  and  _8
REMARK    6  A    between atoms: _13  and  _15
REMARK    7  A    between atoms: _15  and  _16
REMARK    8  A    between atoms: _15  and  _18
REMARK    9  A    between atoms: _18  and  _19
REMARK   10  A    between atoms: _24  and  _25
REMARK   11  A    between atoms: _27  and  _29
REMARK   12  A    between atoms: _29  and  _30
REMARK   13  A    between atoms: _32  and  _34
REMARK   14  A    between atoms: _34  and  _35
REMARK   15  A    between atoms: _34  and  _37
REMARK   16  A    between atoms: _37  and  _38
REMARK   17  A    between atoms: _43  and  _44
REMARK   18  A    between atoms: _46  and  _48
REMARK   19  A    between atoms: _48  and  _49
REMARK   20  A    between atoms: _48  and  _51
REMARK   21  A    between atoms: _51  and  _52
REMARK   22  A    between atoms: _55  and  _57
REMARK   23  A    between atoms: _57  and  _58
REMARK   24  A    between atoms: _57  and  _60
REMARK   25  A    between atoms: _60  and  _61
REMARK   26  A    between atoms: _67  and  _69
REMARK   27  A    between atoms: _69  and  _70
REMARK   28  A    between atoms: _69  and  _72
REMARK   29  A    between atoms: _72  and  _73
REMARK   30  A    between atoms: _78  and  _79
REMARK   31  A    between atoms: _81  and  _83
REMARK   32  A    between atoms: _83  and  _84
REMARK   33  A    between atoms: _83  and  _86
REMARK   34  A    between atoms: _86  and  _87
REMARK   35  A    between atoms: _90  and  _92
REMARK   36  A    between atoms: _92  and  _93
REMARK   37  A    between atoms: _92  and  _95
REMARK   38  A    between atoms: _95  and  _96
REMARK   39  A    between atoms: _98  and  _100
REMARK   40  A    between atoms: _100  and  _101
REMARK   41  A    between atoms: _100  and  _103
REMARK   42  A    between atoms: _103  and  _104
REMARK   43  A    between atoms: _106  and  _108
REMARK   44  A    between atoms: _108  and  _109
REMARK   45  A    between atoms: _111  and  _113
REMARK   46  A    between atoms: _113  and  _114
REMARK   47  A    between atoms: _116  and  _118
REMARK   48  A    between atoms: _118  and  _119
REMARK   49  A    between atoms: _121  and  _123
REMARK   50  A    between atoms: _123  and  _124
REMARK   51  A    between atoms: _126  and  _128
REMARK   52  A    between atoms: _128  and  _129
REMARK   53  A    between atoms: _128  and  _131
REMARK   54  A    between atoms: _131  and  _132
REMARK   55  A    between atoms: _135  and  _137
REMARK   56  A    between atoms: _137  and  _138
REMARK   57  A    between atoms: _137  and  _140
REMARK   58  A    between atoms: _140  and  _141
REMARK   59  A    between atoms: _141  and  _142
REMARK   60  A    between atoms: _142  and  _143
REMARK   61  A    between atoms: _152  and  _154
REMARK   62  A    between atoms: _154  and  _155
REMARK   63  A    between atoms: _154  and  _157
REMARK   64  A    between atoms: _157  and  _158
REMARK   65  A    between atoms: _161  and  _163
REMARK   66  A    between atoms: _163  and  _164
REMARK   67  A    between atoms: _167  and  _169
REMARK   68  A    between atoms: _169  and  _170
REMARK   69  A    between atoms: _169  and  _172
REMARK   70  A    between atoms: _172  and  _173
REMARK   71  A    between atoms: _176  and  _178
REMARK   72  A    between atoms: _178  and  _179
REMARK   73  A    between atoms: _178  and  _181
REMARK   74  A    between atoms: _181  and  _182
REMARK   75  A    between atoms: _185  and  _187
REMARK   76  A    between atoms: _187  and  _188
REMARK   77  A    between atoms: _191  and  _193
REMARK   78  A    between atoms: _193  and  _194
REMARK   79  A    between atoms: _193  and  _196
REMARK   80  A    between atoms: _196  and  _197
REMARK   81  A    between atoms: _200  and  _202
REMARK   82  A    between atoms: _202  and  _203
REMARK   83  A    between atoms: _202  and  _205
REMARK   84  A    between atoms: _205  and  _206
REMARK   85  A    between atoms: _209  and  _211
REMARK   86  A    between atoms: _211  and  _212
REMARK   87  A    between atoms: _211  and  _214
REMARK   88  A    between atoms: _214  and  _215
REMARK   89  A    between atoms: _220  and  _221
REMARK   90  A    between atoms: _223  and  _225
REMARK   91  A    between atoms: _225  and  _226
REMARK   92  A    between atoms: _225  and  _228
REMARK   93  A    between atoms: _228  and  _229
REMARK   94  A    between atoms: _234  and  _235
REMARK   95  A    between atoms: _237  and  _239
REMARK   96  A    between atoms: _239  and  _240
REMARK   97  A    between atoms: _239  and  _242
REMARK   98  A    between atoms: _242  and  _243
REMARK   99  A    between atoms: _243  and  _244
REMARK  100  A    between atoms: _249  and  _251
REMARK  101  A    between atoms: _251  and  _252
REMARK  102  A    between atoms: _251  and  _254
REMARK  103  A    between atoms: _254  and  _255
REMARK  104  A    between atoms: _255  and  _256
REMARK  105  A    between atoms: _256  and  _257
REMARK  106  A    between atoms: _266  and  _268
REMARK  107  A    between atoms: _268  and  _269
REMARK  108  A    between atoms: _268  and  _271
REMARK  109  A    between atoms: _271  and  _272
REMARK  110  A    between atoms: _277  and  _278
REMARK  111  A    between atoms: _280  and  _282
REMARK  112  A    between atoms: _282  and  _283
REMARK  113  A    between atoms: _282  and  _285
REMARK  114  A    between atoms: _285  and  _286
REMARK  115  A    between atoms: _289  and  _291
REMARK  116  A    between atoms: _291  and  _292
REMARK  117  A    between atoms: _291  and  _294
REMARK  118  A    between atoms: _294  and  _295
REMARK  119  A    between atoms: _305  and  _307
REMARK  120  A    between atoms: _307  and  _308
REMARK  121  A    between atoms: _307  and  _310
REMARK  122  A    between atoms: _310  and  _311
REMARK  123  A    between atoms: _314  and  _316
REMARK  124  A    between atoms: _316  and  _317
REMARK  125  A    between atoms: _316  and  _319
REMARK  126  A    between atoms: _319  and  _320
REMARK  127  A    between atoms: _320  and  _321
REMARK  128  A    between atoms: _324  and  _326
REMARK  129  A    between atoms: _326  and  _327
REMARK  130  A    between atoms: _326  and  _329
REMARK  131  A    between atoms: _329  and  _330
REMARK  132  A    between atoms: _332  and  _334
REMARK  133  A    between atoms: _334  and  _335
REMARK  134  A    between atoms: _334  and  _337
REMARK  135  A    between atoms: _337  and  _338
REMARK  136  A    between atoms: _341  and  _343
REMARK  137  A    between atoms: _343  and  _344
REMARK  138  A    between atoms: _346  and  _348
REMARK  139  A    between atoms: _348  and  _349
REMARK  140  A    between atoms: _348  and  _351
REMARK  141  A    between atoms: _351  and  _352
REMARK  142  A    between atoms: _362  and  _364
REMARK  143  A    between atoms: _364  and  _365
REMARK  144  A    between atoms: _364  and  _367
REMARK  145  A    between atoms: _367  and  _368
REMARK  146  A    between atoms: _368  and  _369
REMARK  147  A    between atoms: _369  and  _370
REMARK  148  A    between atoms: _379  and  _381
REMARK  149  A    between atoms: _381  and  _382
REMARK  150  A    between atoms: _381  and  _384
REMARK  151  A    between atoms: _384  and  _385
REMARK  152  A    between atoms: _385  and  _386
REMARK  153  A    between atoms: _386  and  _387
REMARK  154  A    between atoms: _387  and  _388
REMARK  155  A    between atoms: _392  and  _394
REMARK  156  A    between atoms: _394  and  _395
REMARK  157  A    between atoms: _394  and  _397
REMARK  158  A    between atoms: _397  and  _398
REMARK  159  A    between atoms: _398  and  _399
REMARK  160  A    between atoms: _404  and  _406
REMARK  161  A    between atoms: _406  and  _407
REMARK  162  A    between atoms: _406  and  _409
REMARK  163  A    between atoms: _409  and  _410
REMARK                            x       y       z     vdW  Elec       q    Type
REMARK                         _______ _______ _______ _____ _____    ______ ____
ROOT
ATOM      1  CB  GLN A   1      10.698  11.914  28.344  0.00  0.00    +0.035 C 
ENDROOT
BRANCH   1   2
ATOM      2  CA  GLN A   1      10.606  12.662  29.679  0.00  0.00    +0.134 C 
BRANCH   2   3
ATOM      3  N   GLN A   1       9.609  12.077  30.568  0.00  0.00    -0.239 NA
ATOM      4  H   GLN A   1       8.683  11.807  30.179  0.00  0.00    +0.142 HD
ENDBRANCH   2   3
BRANCH   2   5
ATOM      5  C   GLN A   1      10.160  14.110  29.469  0.00  0.00    +0.224 C 
ATOM      6  O   GLN A   1       8.998  14.360  29.153  0.00  0.00    -0.287 OA
ENDBRANCH   2   5
ENDBRANCH   1   2
BRANCH   1   7
ATOM      7  CG  GLN A   1      11.847  12.451  27.496  0.00  0.00    +0.087 C 
BRANCH   7   8
ATOM      8  CD  GLN A   1      12.213  11.563  26.315  0.00  0.00    +0.219 C 
ATOM      9  OE1 GLN A   1      11.623  10.501  26.103  0.00  0.00    -0.275 OA
ATOM     10  NE2 GLN A   1      13.216  11.993  25.546  0.00  0.00    -0.329 N 
ATOM     11 HE21 GLN A   1      13.686  12.895  25.761  0.00  0.00    +0.145 HD
ATOM     12 HE22 GLN A   1      13.527  11.426  24.732  0.00  0.00    +0.145 HD
ENDBRANCH   7   8
ENDBRANCH   1   7
TORSDOF 5
REMARK  Name = ../refined-set-2016/3ujc/3ujc_pocket.pdb
REMARK  163 active torsions:
REMARK  status: ('A' for Active; 'I' for Inactive)
REMARK    1  A    between atoms: _1  and  _3
REMARK    2  A    between atoms: _3  and  _4
REMARK    3  A    between atoms: _3  and  _6
REMARK    4  A    between atoms: _6  and  _7
REMARK    5  A    between atoms: _7  and  _8
REMARK    6  A    between atoms: _13  and  _15
REMARK    7  A    between atoms: _15  and  _16
REMARK    8  A    between atoms: _15  and  _18
REMARK    9  A    between atoms: _18  and  _19
REMARK   10  A    between atoms: _24  and  _25
REMARK   11  A    between atoms: _27  and  _29
REMARK   12  A    between atoms: _29  and  _30
REMARK   13  A    between atoms: _32  and  _34
REMARK   14  A    between atoms: _34  and  _35
REMARK   15  A    between atoms: _34  and  _37
REMARK   16  A    between atoms: _37  and  _38
REMARK   17  A    between atoms: _43  and  _44
REMARK   18  A    between atoms: _46  and  _48
REMARK   19  A    between atoms: _48  and  _49
REMARK   20  A    between atoms: _48  and  _51
REMARK   21  A    between atoms: _51  and  _52
REMARK   22  A    between atoms: _55  and  _57
REMARK   23  A    between atoms: _57  and  _58
REMARK   24  A    between atoms: _57  and  _60
REMARK   25  A    between atoms: _60  and  _61
REMARK   26  A    between atoms: _67  and  _69
REMARK   27  A    between atoms: _69  and  _70
REMARK   28  A    between atoms: _69  and  _72
REMARK   29  A    between atoms: _72  and  _73
REMARK   30  A    between atoms: _78  and  _79
REMARK   31  A    between atoms: _81  and  _83
REMARK   32  A    between atoms: _83  and  _84
REMARK   33  A    between atoms: _83  and  _86
REMARK   34  A    between atoms: _86  and  _87
REMARK   35  A    between atoms: _90  and  _92
REMARK   36  A    between atoms: _92  and  _93
REMARK   37  A    between atoms: _92  and  _95
REMARK   38  A    between atoms: _95  and  _96
REMARK   39  A    between atoms: _98  and  _100
REMARK   40  A    between atoms: _100  and  _101
REMARK   41  A    between atoms: _100  and  _103
REMARK   42  A    between atoms: _103  and  _104
REMARK   43  A    between atoms: _106  and  _108
REMARK   44  A    between atoms: _108  and  _109
REMARK   45  A    between atoms: _111  and  _113
REMARK   46  A    between atoms: _113  and  _114
REMARK   47  A    between atoms: _116  and  _118
REMARK   48  A    between atoms: _118  and  _119
REMARK   49  A    between atoms: _121  and  _123
REMARK   50  A    between atoms: _123  and  _124
REMARK   51  A    between atoms: _126  and  _128
REMARK   52  A    between atoms: _128  and  _129
REMARK   53  A    between atoms: _128  and  _131
REMARK   54  A    between atoms: _131  and  _132
REMARK   55  A    between atoms: _135  and  _137
REMARK   56  A    between atoms: _137  and  _138
REMARK   57  A    between atoms: _137  and  _140
REMARK   58  A    between atoms: _140  and  _141
REMARK   59  A    between atoms: _141  and  _142
REMARK   60  A    between atoms: _142  and  _143
REMARK   61  A    between atoms: _152  and  _154
REMARK   62  A    between atoms: _154  and  _155
REMARK   63  A    between atoms: _154  and  _157
REMARK   64  A    between atoms: _157  and  _158
REMARK   65  A    between atoms: _161  and  _163
REMARK   66  A    between atoms: _163  and  _164
REMARK   67  A    between atoms: _167  and  _169
REMARK   68  A    between atoms: _169  and  _170
REMARK   69  A    between atoms: _169  and  _172
REMARK   70  A    between atoms: _172  and  _173
REMARK   71  A    between atoms: _176  and  _178
REMARK   72  A    between atoms: _178  and  _179
REMARK   73  A    between atoms: _178  and  _181
REMARK   74  A    between atoms: _181  and  _182
REMARK   75  A    between atoms: _185  and  _187
REMARK   76  A    between atoms: _187  and  _188
REMARK   77  A    between atoms: _191  and  _193
REMARK   78  A    between atoms: _193  and  _194
REMARK   79  A    between atoms: _193  and  _196
REMARK   80  A    between atoms: _196  and  _197
REMARK   81  A    between atoms: _200  and  _202
REMARK   82  A    between atoms: _202  and  _203
REMARK   83  A    between atoms: _202  and  _205
REMARK   84  A    between atoms: _205  and  _206
REMARK   85  A    between atoms: _209  and  _211
REMARK   86  A    between atoms: _211  and  _212
REMARK   87  A    between atoms: _211  and  _214
REMARK   88  A    between atoms: _214  and  _215
REMARK   89  A    between atoms: _220  and  _221
REMARK   90  A    between atoms: _223  and  _225
REMARK   91  A    between atoms: _225  and  _226
REMARK   92  A    between atoms: _225  and  _228
REMARK   93  A    between atoms: _228  and  _229
REMARK   94  A    between atoms: _234  and  _235
REMARK   95  A    between atoms: _237  and  _239
REMARK   96  A    between atoms: _239  and  _240
REMARK   97  A    between atoms: _239  and  _242
REMARK   98  A    between atoms: _242  and  _243
REMARK   99  A    between atoms: _243  and  _244
REMARK  100  A    between atoms: _249  and  _251
REMARK  101  A    between atoms: _251  and  _252
REMARK  102  A    between atoms: _251  and  _254
REMARK  103  A    between atoms: _254  and  _255
REMARK  104  A    between atoms: _255  and  _256
REMARK  105  A    between atoms: _256  and  _257
REMARK  106  A    between atoms: _266  and  _268
REMARK  107  A    between atoms: _268  and  _269
REMARK  108  A    between atoms: _268  and  _271
REMARK  109  A    between atoms: _271  and  _272
REMARK  110  A    between atoms: _277  and  _278
REMARK  111  A    between atoms: _280  and  _282
REMARK  112  A    between atoms: _282  and  _283
REMARK  113  A    between atoms: _282  and  _285
REMARK  114  A    between atoms: _285  and  _286
REMARK  115  A    between atoms: _289  and  _291
REMARK  116  A    between atoms: _291  and  _292
REMARK  117  A    between atoms: _291  and  _294
REMARK  118  A    between atoms: _294  and  _295
REMARK  119  A    between atoms: _305  and  _307
REMARK  120  A    between atoms: _307  and  _308
REMARK  121  A    between atoms: _307  and  _310
REMARK  122  A    between atoms: _310  and  _311
REMARK  123  A    between atoms: _314  and  _316
REMARK  124  A    between atoms: _316  and  _317
REMARK  125  A    between atoms: _316  and  _319
REMARK  126  A    between atoms: _319  and  _320
REMARK  127  A    between atoms: _320  and  _321
REMARK  128  A    between atoms: _324  and  _326
REMARK  129  A    between atoms: _326  and  _327
REMARK  130  A    between atoms: _326  and  _329
REMARK  131  A    between atoms: _329  and  _330
REMARK  132  A    between atoms: _332  and  _334
REMARK  133  A    between atoms: _334  and  _335
REMARK  134  A    between atoms: _334  and  _337
REMARK  135  A    between atoms: _337  and  _338
REMARK  136  A    between atoms: _341  and  _343
REMARK  137  A    between atoms: _343  and  _344
REMARK  138  A    between atoms: _346  and  _348
REMARK  139  A    between atoms: _348  and  _349
REMARK  140  A    between atoms: _348  and  _351
REMARK  141  A    between atoms: _351  and  _352
REMARK  142  A    between atoms: _362  and  _364
REMARK  143  A    between atoms: _364  and  _365
REMARK  144  A    between atoms: _364  and  _367
REMARK  145  A    between atoms: _367  and  _368
REMARK  146  A    between atoms: _368  and  _369
REMARK  147  A    between atoms: _369  and  _370
REMARK  148  A    between atoms: _379  and  _381
REMARK  149  A    between atoms: _381  and  _382
REMARK  150  A    between atoms: _381  and  _384
REMARK  151  A    between atoms: _384  and  _385
REMARK  152  A    between atoms: _385  and  _386
REMARK  153  A    between atoms: _386  and  _387
REMARK  154  A    between atoms: _387  and  _388
REMARK  155  A    between atoms: _392  and  _394
REMARK  156  A    between atoms: _394  and  _395
REMARK  157  A    between atoms: _394  and  _397
REMARK  158  A    between atoms: _397  and  _398
REMARK  159  A    between atoms: _398  and  _399
REMARK  160  A    between atoms: _404  and  _406
REMARK  161  A    between atoms: _406  and  _407
REMARK  162  A    between atoms: _406  and  _409
REMARK  163  A    between atoms: _409  and  _410
REMARK                            x       y       z     vdW  Elec       q    Type
REMARK                         _______ _______ _______ _____ _____    ______ ____
ROOT
ATOM      1  CG  TRP A   1      11.865  19.807  24.797  0.00  0.00    -0.002 A 
ATOM      2  CD1 TRP A   1      13.078  19.315  24.437  0.00  0.00    +0.068 A 
ATOM      3  NE1 TRP A   1      13.518  19.931  23.284  0.00  0.00    -0.352 N 
ATOM      4  CE2 TRP A   1      12.578  20.838  22.881  0.00  0.00    +0.056 A 
ATOM      5  CZ2 TRP A   1      12.568  21.693  21.780  0.00  0.00    +0.017 A 
ATOM      6  CH2 TRP A   1      11.471  22.498  21.618  0.00  0.00    +0.001 A 
ATOM      7  CZ3 TRP A   1      10.403  22.476  22.532  0.00  0.00    +0.000 A 
ATOM      8  CE3 TRP A   1      10.418  21.632  23.625  0.00  0.00    +0.001 A 
ATOM      9  HE1 TRP A   1      14.418  19.737  22.800  0.00  0.00    +0.166 HD
ATOM     10  CD2 TRP A   1      11.518  20.790  23.813  0.00  0.00    +0.013 A 
ENDROOT
BRANCH   1  11
ATOM     11  CB  TRP A   1      11.043  19.385  25.979  0.00  0.00    +0.053 C 
BRANCH  11  12
ATOM     12  CA  TRP A   1      11.866  19.158  27.244  0.00  0.00    +0.137 C 
BRANCH  12  13
ATOM     13  N   TRP A   1      11.120  18.374  28.213  0.00  0.00    -0.239 NA
ATOM     14  H   TRP A   1      10.231  18.747  28.602  0.00  0.00    +0.142 HD
ENDBRANCH  12  13
BRANCH  12  15
ATOM     15  C   TRP A   1      12.189  20.487  27.900  0.00  0.00    +0.224 C 
ATOM     16  O   TRP A   1      11.277  21.229  28.281  0.00  0.00    -0.287 OA
ENDBRANCH  12  15
ENDBRANCH  11  12
ENDBRANCH   1  11
TORSDOF 4
REMARK  Name = ../refined-set-2016/3ujc/3ujc_pocket.pdb
REMARK  163 active torsions:
REMARK  status: ('A' for Active; 'I' for Inactive)
REMARK    1  A    between atoms: _1  and  _3
REMARK    2  A    between atoms: _3  and  _4
REMARK    3  A    between atoms: _3  and  _6
REMARK    4  A    between atoms: _6  and  _7
REMARK    5  A    between atoms: _7  and  _8
REMARK    6  A    between atoms: _13  and  _15
REMARK    7  A    between atoms: _15  and  _16
REMARK    8  A    between atoms: _15  and  _18
REMARK    9  A    between atoms: _18  and  _19
REMARK   10  A    between atoms: _24  and  _25
REMARK   11  A    between atoms: _27  and  _29
REMARK   12  A    between atoms: _29  and  _30
REMARK   13  A    between atoms: _32  and  _34
REMARK   14  A    between atoms: _34  and  _35
REMARK   15  A    between atoms: _34  and  _37
REMARK   16  A    between atoms: _37  and  _38
REMARK   17  A    between atoms: _43  and  _44
REMARK   18  A    between atoms: _46  and  _48
REMARK   19  A    between atoms: _48  and  _49
REMARK   20  A    between atoms: _48  and  _51
REMARK   21  A    between atoms: _51  and  _52
REMARK   22  A    between atoms: _55  and  _57
REMARK   23  A    between atoms: _57  and  _58
REMARK   24  A    between atoms: _57  and  _60
REMARK   25  A    between atoms: _60  and  _61
REMARK   26  A    between atoms: _67  and  _69
REMARK   27  A    between atoms: _69  and  _70
REMARK   28  A    between atoms: _69  and  _72
REMARK   29  A    between atoms: _72  and  _73
REMARK   30  A    between atoms: _78  and  _79
REMARK   31  A    between atoms: _81  and  _83
REMARK   32  A    between atoms: _83  and  _84
REMARK   33  A    between atoms: _83  and  _86
REMARK   34  A    between atoms: _86  and  _87
REMARK   35  A    between atoms: _90  and  _92
REMARK   36  A    between atoms: _92  and  _93
REMARK   37  A    between atoms: _92  and  _95
REMARK   38  A    between atoms: _95  and  _96
REMARK   39  A    between atoms: _98  and  _100
REMARK   40  A    between atoms: _100  and  _101
REMARK   41  A    between atoms: _100  and  _103
REMARK   42  A    between atoms: _103  and  _104
REMARK   43  A    between atoms: _106  and  _108
REMARK   44  A    between atoms: _108  and  _109
REMARK   45  A    between atoms: _111  and  _113
REMARK   46  A    between atoms: _113  and  _114
REMARK   47  A    between atoms: _116  and  _118
REMARK   48  A    between atoms: _118  and  _119
REMARK   49  A    between atoms: _121  and  _123
REMARK   50  A    between atoms: _123  and  _124
REMARK   51  A    between atoms: _126  and  _128
REMARK   52  A    between atoms: _128  and  _129
REMARK   53  A    between atoms: _128  and  _131
REMARK   54  A    between atoms: _131  and  _132
REMARK   55  A    between atoms: _135  and  _137
REMARK   56  A    between atoms: _137  and  _138
REMARK   57  A    between atoms: _137  and  _140
REMARK   58  A    between atoms: _140  and  _141
REMARK   59  A    between atoms: _141  and  _142
REMARK   60  A    between atoms: _142  and  _143
REMARK   61  A    between atoms: _152  and  _154
REMARK   62  A    between atoms: _154  and  _155
REMARK   63  A    between atoms: _154  and  _157
REMARK   64  A    between atoms: _157  and  _158
REMARK   65  A    between atoms: _161  and  _163
REMARK   66  A    between atoms: _163  and  _164
REMARK   67  A    between atoms: _167  and  _169
REMARK   68  A    between atoms: _169  and  _170
REMARK   69  A    between atoms: _169  and  _172
REMARK   70  A    between atoms: _172  and  _173
REMARK   71  A    between atoms: _176  and  _178
REMARK   72  A    between atoms: _178  and  _179
REMARK   73  A    between atoms: _178  and  _181
REMARK   74  A    between atoms: _181  and  _182
REMARK   75  A    between atoms: _185  and  _187
REMARK   76  A    between atoms: _187  and  _188
REMARK   77  A    between atoms: _191  and  _193
REMARK   78  A    between atoms: _193  and  _194
REMARK   79  A    between atoms: _193  and  _196
REMARK   80  A    between atoms: _196  and  _197
REMARK   81  A    between atoms: _200  and  _202
REMARK   82  A    between atoms: _202  and  _203
REMARK   83  A    between atoms: _202  and  _205
REMARK   84  A    between atoms: _205  and  _206
REMARK   85  A    between atoms: _209  and  _211
REMARK   86  A    between atoms: _211  and  _212
REMARK   87  A    between atoms: _211  and  _214
REMARK   88  A    between atoms: _214  and  _215
REMARK   89  A    between atoms: _220  and  _221
REMARK   90  A    between atoms: _223  and  _225
REMARK   91  A    between atoms: _225  and  _226
REMARK   92  A    between atoms: _225  and  _228
REMARK   93  A    between atoms: _228  and  _229
REMARK   94  A    between atoms: _234  and  _235
REMARK   95  A    between atoms: _237  and  _239
REMARK   96  A    between atoms: _239  and  _240
REMARK   97  A    between atoms: _239  and  _242
REMARK   98  A    between atoms: _242  and  _243
REMARK   99  A    between atoms: _243  and  _244
REMARK  100  A    between atoms: _249  and  _251
REMARK  101  A    between atoms: _251  and  _252
REMARK  102  A    between atoms: _251  and  _254
REMARK  103  A    between atoms: _254  and  _255
REMARK  104  A    between atoms: _255  and  _256
REMARK  105  A    between atoms: _256  and  _257
REMARK  106  A    between atoms: _266  and  _268
REMARK  107  A    between atoms: _268  and  _269
REMARK  108  A    between atoms: _268  and  _271
REMARK  109  A    between atoms: _271  and  _272
REMARK  110  A    between atoms: _277  and  _278
REMARK  111  A    between atoms: _280  and  _282
REMARK  112  A    between atoms: _282  and  _283
REMARK  113  A    between atoms: _282  and  _285
REMARK  114  A    between atoms: _285  and  _286
REMARK  115  A    between atoms: _289  and  _291
REMARK  116  A    between atoms: _291  and  _292
REMARK  117  A    between atoms: _291  and  _294
REMARK  118  A    between atoms: _294  and  _295
REMARK  119  A    between atoms: _305  and  _307
REMARK  120  A    between atoms: _307  and  _308
REMARK  121  A    between atoms: _307  and  _310
REMARK  122  A    between atoms: _310  and  _311
REMARK  123  A    between atoms: _314  and  _316
REMARK  124  A    between atoms: _316  and  _317
REMARK  125  A    between atoms: _316  and  _319
REMARK  126  A    between atoms: _319  and  _320
REMARK  127  A    between atoms: _320  and  _321
REMARK  128  A    between atoms: _324  and  _326
REMARK  129  A    between atoms: _326  and  _327
REMARK  130  A    between atoms: _326  and  _329
REMARK  131  A    between atoms: _329  and  _330
REMARK  132  A    between atoms: _332  and  _334
REMARK  133  A    between atoms: _334  and  _335
REMARK  134  A    between atoms: _334  and  _337
REMARK  135  A    between atoms: _337  and  _338
REMARK  136  A    between atoms: _341  and  _343
REMARK  137  A    between atoms: _343  and  _344
REMARK  138  A    between atoms: _346  and  _348
REMARK  139  A    between atoms: _348  and  _349
REMARK  140  A    between atoms: _348  and  _351
REMARK  141  A    between atoms: _351  and  _352
REMARK  142  A    between atoms: _362  and  _364
REMARK  143  A    between atoms: _364  and  _365
REMARK  144  A    between atoms: _364  and  _367
REMARK  145  A    between atoms: _367  and  _368
REMARK  146  A    between atoms: _368  and  _369
REMARK  147  A    between atoms: _369  and  _370
REMARK  148  A    between atoms: _379  and  _381
REMARK  149  A    between atoms: _381  and  _382
REMARK  150  A    between atoms: _381  and  _384
REMARK  151  A    between atoms: _384  and  _385
REMARK  152  A    between atoms: _385  and  _386
REMARK  153  A    between atoms: _386  and  _387
REMARK  154  A    between atoms: _387  and  _388
REMARK  155  A    between atoms: _392  and  _394
REMARK  156  A    between atoms: _394  and  _395
REMARK  157  A    between atoms: _394  and  _397
REMARK  158  A    between atoms: _397  and  _398
REMARK  159  A    between atoms: _398  and  _399
REMARK  160  A    between atoms: _404  and  _406
REMARK  161  A    between atoms: _406  and  _407
REMARK  162  A    between atoms: _406  and  _409
REMARK  163  A    between atoms: _409  and  _410
REMARK                            x       y       z     vdW  Elec       q    Type
REMARK                         _______ _______ _______ _____ _____    ______ ____
ROOT
ATOM      1  O   HOH     1      13.724   4.545  18.694  0.00  0.00    +0.000 OA
ENDROOT
TORSDOF 0
REMARK  Name = ../refined-set-2016/3ujc/3ujc_pocket.pdb
REMARK  163 active torsions:
REMARK  status: ('A' for Active; 'I' for Inactive)
REMARK    1  A    between atoms: _1  and  _3
REMARK    2  A    between atoms: _3  and  _4
REMARK    3  A    between atoms: _3  and  _6
REMARK    4  A    between atoms: _6  and  _7
REMARK    5  A    between atoms: _7  and  _8
REMARK    6  A    between atoms: _13  and  _15
REMARK    7  A    between atoms: _15  and  _16
REMARK    8  A    between atoms: _15  and  _18
REMARK    9  A    between atoms: _18  and  _19
REMARK   10  A    between atoms: _24  and  _25
REMARK   11  A    between atoms: _27  and  _29
REMARK   12  A    between atoms: _29  and  _30
REMARK   13  A    between atoms: _32  and  _34
REMARK   14  A    between atoms: _34  and  _35
REMARK   15  A    between atoms: _34  and  _37
REMARK   16  A    between atoms: _37  and  _38
REMARK   17  A    between atoms: _43  and  _44
REMARK   18  A    between atoms: _46  and  _48
REMARK   19  A    between atoms: _48  and  _49
REMARK   20  A    between atoms: _48  and  _51
REMARK   21  A    between atoms: _51  and  _52
REMARK   22  A    between atoms: _55  and  _57
REMARK   23  A    between atoms: _57  and  _58
REMARK   24  A    between atoms: _57  and  _60
REMARK   25  A    between atoms: _60  and  _61
REMARK   26  A    between atoms: _67  and  _69
REMARK   27  A    between atoms: _69  and  _70
REMARK   28  A    between atoms: _69  and  _72
REMARK   29  A    between atoms: _72  and  _73
REMARK   30  A    between atoms: _78  and  _79
REMARK   31  A    between atoms: _81  and  _83
REMARK   32  A    between atoms: _83  and  _84
REMARK   33  A    between atoms: _83  and  _86
REMARK   34  A    between atoms: _86  and  _87
REMARK   35  A    between atoms: _90  and  _92
REMARK   36  A    between atoms: _92  and  _93
REMARK   37  A    between atoms: _92  and  _95
REMARK   38  A    between atoms: _95  and  _96
REMARK   39  A    between atoms: _98  and  _100
REMARK   40  A    between atoms: _100  and  _101
REMARK   41  A    between atoms: _100  and  _103
REMARK   42  A    between atoms: _103  and  _104
REMARK   43  A    between atoms: _106  and  _108
REMARK   44  A    between atoms: _108  and  _109
REMARK   45  A    between atoms: _111  and  _113
REMARK   46  A    between atoms: _113  and  _114
REMARK   47  A    between atoms: _116  and  _118
REMARK   48  A    between atoms: _118  and  _119
REMARK   49  A    between atoms: _121  and  _123
REMARK   50  A    between atoms: _123  and  _124
REMARK   51  A    between atoms: _126  and  _128
REMARK   52  A    between atoms: _128  and  _129
REMARK   53  A    between atoms: _128  and  _131
REMARK   54  A    between atoms: _131  and  _132
REMARK   55  A    between atoms: _135  and  _137
REMARK   56  A    between atoms: _137  and  _138
REMARK   57  A    between atoms: _137  and  _140
REMARK   58  A    between atoms: _140  and  _141
REMARK   59  A    between atoms: _141  and  _142
REMARK   60  A    between atoms: _142  and  _143
REMARK   61  A    between atoms: _152  and  _154
REMARK   62  A    between atoms: _154  and  _155
REMARK   63  A    between atoms: _154  and  _157
REMARK   64  A    between atoms: _157  and  _158
REMARK   65  A    between atoms: _161  and  _163
REMARK   66  A    between atoms: _163  and  _164
REMARK   67  A    between atoms: _167  and  _169
REMARK   68  A    between atoms: _169  and  _170
REMARK   69  A    between atoms: _169  and  _172
REMARK   70  A    between atoms: _172  and  _173
REMARK   71  A    between atoms: _176  and  _178
REMARK   72  A    between atoms: _178  and  _179
REMARK   73  A    between atoms: _178  and  _181
REMARK   74  A    between atoms: _181  and  _182
REMARK   75  A    between atoms: _185  and  _187
REMARK   76  A    between atoms: _187  and  _188
REMARK   77  A    between atoms: _191  and  _193
REMARK   78  A    between atoms: _193  and  _194
REMARK   79  A    between atoms: _193  and  _196
REMARK   80  A    between atoms: _196  and  _197
REMARK   81  A    between atoms: _200  and  _202
REMARK   82  A    between atoms: _202  and  _203
REMARK   83  A    between atoms: _202  and  _205
REMARK   84  A    between atoms: _205  and  _206
REMARK   85  A    between atoms: _209  and  _211
REMARK   86  A    between atoms: _211  and  _212
REMARK   87  A    between atoms: _211  and  _214
REMARK   88  A    between atoms: _214  and  _215
REMARK   89  A    between atoms: _220  and  _221
REMARK   90  A    between atoms: _223  and  _225
REMARK   91  A    between atoms: _225  and  _226
REMARK   92  A    between atoms: _225  and  _228
REMARK   93  A    between atoms: _228  and  _229
REMARK   94  A    between atoms: _234  and  _235
REMARK   95  A    between atoms: _237  and  _239
REMARK   96  A    between atoms: _239  and  _240
REMARK   97  A    between atoms: _239  and  _242
REMARK   98  A    between atoms: _242  and  _243
REMARK   99  A    between atoms: _243  and  _244
REMARK  100  A    between atoms: _249  and  _251
REMARK  101  A    between atoms: _251  and  _252
REMARK  102  A    between atoms: _251  and  _254
REMARK  103  A    between atoms: _254  and  _255
REMARK  104  A    between atoms: _255  and  _256
REMARK  105  A    between atoms: _256  and  _257
REMARK  106  A    between atoms: _266  and  _268
REMARK  107  A    between atoms: _268  and  _269
REMARK  108  A    between atoms: _268  and  _271
REMARK  109  A    between atoms: _271  and  _272
REMARK  110  A    between atoms: _277  and  _278
REMARK  111  A    between atoms: _280  and  _282
REMARK  112  A    between atoms: _282  and  _283
REMARK  113  A    between atoms: _282  and  _285
REMARK  114  A    between atoms: _285  and  _286
REMARK  115  A    between atoms: _289  and  _291
REMARK  116  A    between atoms: _291  and  _292
REMARK  117  A    between atoms: _291  and  _294
REMARK  118  A    between atoms: _294  and  _295
REMARK  119  A    between atoms: _305  and  _307
REMARK  120  A    between atoms: _307  and  _308
REMARK  121  A    between atoms: _307  and  _310
REMARK  122  A    between atoms: _310  and  _311
REMARK  123  A    between atoms: _314  and  _316
REMARK  124  A    between atoms: _316  and  _317
REMARK  125  A    between atoms: _316  and  _319
REMARK  126  A    between atoms: _319  and  _320
REMARK  127  A    between atoms: _320  and  _321
REMARK  128  A    between atoms: _324  and  _326
REMARK  129  A    between atoms: _326  and  _327
REMARK  130  A    between atoms: _326  and  _329
REMARK  131  A    between atoms: _329  and  _330
REMARK  132  A    between atoms: _332  and  _334
REMARK  133  A    between atoms: _334  and  _335
REMARK  134  A    between atoms: _334  and  _337
REMARK  135  A    between atoms: _337  and  _338
REMARK  136  A    between atoms: _341  and  _343
REMARK  137  A    between atoms: _343  and  _344
REMARK  138  A    between atoms: _346  and  _348
REMARK  139  A    between atoms: _348  and  _349
REMARK  140  A    between atoms: _348  and  _351
REMARK  141  A    between atoms: _351  and  _352
REMARK  142  A    between atoms: _362  and  _364
REMARK  143  A    between atoms: _364  and  _365
REMARK  144  A    between atoms: _364  and  _367
REMARK  145  A    between atoms: _367  and  _368
REMARK  146  A    between atoms: _368  and  _369
REMARK  147  A    between atoms: _369  and  _370
REMARK  148  A    between atoms: _379  and  _381
REMARK  149  A    between atoms: _381  and  _382
REMARK  150  A    between atoms: _381  and  _384
REMARK  151  A    between atoms: _384  and  _385
REMARK  152  A    between atoms: _385  and  _386
REMARK  153  A    between atoms: _386  and  _387
REMARK  154  A    between atoms: _387  and  _388
REMARK  155  A    between atoms: _392  and  _394
REMARK  156  A    between atoms: _394  and  _395
REMARK  157  A    between atoms: _394  and  _397
REMARK  158  A    between atoms: _397  and  _398
REMARK  159  A    between atoms: _398  and  _399
REMARK  160  A    between atoms: _404  and  _406
REMARK  161  A    between atoms: _406  and  _407
REMARK  162  A    between atoms: _406  and  _409
REMARK  163  A    between atoms: _409  and  _410
REMARK                            x       y       z     vdW  Elec       q    Type
REMARK                         _______ _______ _______ _____ _____    ______ ____
ROOT
ATOM      1  O   HOH     1      15.603   4.505  16.785  0.00  0.00    +0.000 OA
ENDROOT
TORSDOF 0
REMARK  Name = ../refined-set-2016/3ujc/3ujc_pocket.pdb
REMARK  163 active torsions:
REMARK  status: ('A' for Active; 'I' for Inactive)
REMARK    1  A    between atoms: _1  and  _3
REMARK    2  A    between atoms: _3  and  _4
REMARK    3  A    between atoms: _3  and  _6
REMARK    4  A    between atoms: _6  and  _7
REMARK    5  A    between atoms: _7  and  _8
REMARK    6  A    between atoms: _13  and  _15
REMARK    7  A    between atoms: _15  and  _16
REMARK    8  A    between atoms: _15  and  _18
REMARK    9  A    between atoms: _18  and  _19
REMARK   10  A    between atoms: _24  and  _25
REMARK   11  A    between atoms: _27  and  _29
REMARK   12  A    between atoms: _29  and  _30
REMARK   13  A    between atoms: _32  and  _34
REMARK   14  A    between atoms: _34  and  _35
REMARK   15  A    between atoms: _34  and  _37
REMARK   16  A    between atoms: _37  and  _38
REMARK   17  A    between atoms: _43  and  _44
REMARK   18  A    between atoms: _46  and  _48
REMARK   19  A    between atoms: _48  and  _49
REMARK   20  A    between atoms: _48  and  _51
REMARK   21  A    between atoms: _51  and  _52
REMARK   22  A    between atoms: _55  and  _57
REMARK   23  A    between atoms: _57  and  _58
REMARK   24  A    between atoms: _57  and  _60
REMARK   25  A    between atoms: _60  and  _61
REMARK   26  A    between atoms: _67  and  _69
REMARK   27  A    between atoms: _69  and  _70
REMARK   28  A    between atoms: _69  and  _72
REMARK   29  A    between atoms: _72  and  _73
REMARK   30  A    between atoms: _78  and  _79
REMARK   31  A    between atoms: _81  and  _83
REMARK   32  A    between atoms: _83  and  _84
REMARK   33  A    between atoms: _83  and  _86
REMARK   34  A    between atoms: _86  and  _87
REMARK   35  A    between atoms: _90  and  _92
REMARK   36  A    between atoms: _92  and  _93
REMARK   37  A    between atoms: _92  and  _95
REMARK   38  A    between atoms: _95  and  _96
REMARK   39  A    between atoms: _98  and  _100
REMARK   40  A    between atoms: _100  and  _101
REMARK   41  A    between atoms: _100  and  _103
REMARK   42  A    between atoms: _103  and  _104
REMARK   43  A    between atoms: _106  and  _108
REMARK   44  A    between atoms: _108  and  _109
REMARK   45  A    between atoms: _111  and  _113
REMARK   46  A    between atoms: _113  and  _114
REMARK   47  A    between atoms: _116  and  _118
REMARK   48  A    between atoms: _118  and  _119
REMARK   49  A    between atoms: _121  and  _123
REMARK   50  A    between atoms: _123  and  _124
REMARK   51  A    between atoms: _126  and  _128
REMARK   52  A    between atoms: _128  and  _129
REMARK   53  A    between atoms: _128  and  _131
REMARK   54  A    between atoms: _131  and  _132
REMARK   55  A    between atoms: _135  and  _137
REMARK   56  A    between atoms: _137  and  _138
REMARK   57  A    between atoms: _137  and  _140
REMARK   58  A    between atoms: _140  and  _141
REMARK   59  A    between atoms: _141  and  _142
REMARK   60  A    between atoms: _142  and  _143
REMARK   61  A    between atoms: _152  and  _154
REMARK   62  A    between atoms: _154  and  _155
REMARK   63  A    between atoms: _154  and  _157
REMARK   64  A    between atoms: _157  and  _158
REMARK   65  A    between atoms: _161  and  _163
REMARK   66  A    between atoms: _163  and  _164
REMARK   67  A    between atoms: _167  and  _169
REMARK   68  A    between atoms: _169  and  _170
REMARK   69  A    between atoms: _169  and  _172
REMARK   70  A    between atoms: _172  and  _173
REMARK   71  A    between atoms: _176  and  _178
REMARK   72  A    between atoms: _178  and  _179
REMARK   73  A    between atoms: _178  and  _181
REMARK   74  A    between atoms: _181  and  _182
REMARK   75  A    between atoms: _185  and  _187
REMARK   76  A    between atoms: _187  and  _188
REMARK   77  A    between atoms: _191  and  _193
REMARK   78  A    between atoms: _193  and  _194
REMARK   79  A    between atoms: _193  and  _196
REMARK   80  A    between atoms: _196  and  _197
REMARK   81  A    between atoms: _200  and  _202
REMARK   82  A    between atoms: _202  and  _203
REMARK   83  A    between atoms: _202  and  _205
REMARK   84  A    between atoms: _205  and  _206
REMARK   85  A    between atoms: _209  and  _211
REMARK   86  A    between atoms: _211  and  _212
REMARK   87  A    between atoms: _211  and  _214
REMARK   88  A    between atoms: _214  and  _215
REMARK   89  A    between atoms: _220  and  _221
REMARK   90  A    between atoms: _223  and  _225
REMARK   91  A    between atoms: _225  and  _226
REMARK   92  A    between atoms: _225  and  _228
REMARK   93  A    between atoms: _228  and  _229
REMARK   94  A    between atoms: _234  and  _235
REMARK   95  A    between atoms: _237  and  _239
REMARK   96  A    between atoms: _239  and  _240
REMARK   97  A    between atoms: _239  and  _242
REMARK   98  A    between atoms: _242  and  _243
REMARK   99  A    between atoms: _243  and  _244
REMARK  100  A    between atoms: _249  and  _251
REMARK  101  A    between atoms: _251  and  _252
REMARK  102  A    between atoms: _251  and  _254
REMARK  103  A    between atoms: _254  and  _255
REMARK  104  A    between atoms: _255  and  _256
REMARK  105  A    between atoms: _256  and  _257
REMARK  106  A    between atoms: _266  and  _268
REMARK  107  A    between atoms: _268  and  _269
REMARK  108  A    between atoms: _268  and  _271
REMARK  109  A    between atoms: _271  and  _272
REMARK  110  A    between atoms: _277  and  _278
REMARK  111  A    between atoms: _280  and  _282
REMARK  112  A    between atoms: _282  and  _283
REMARK  113  A    between atoms: _282  and  _285
REMARK  114  A    between atoms: _285  and  _286
REMARK  115  A    between atoms: _289  and  _291
REMARK  116  A    between atoms: _291  and  _292
REMARK  117  A    between atoms: _291  and  _294
REMARK  118  A    between atoms: _294  and  _295
REMARK  119  A    between atoms: _305  and  _307
REMARK  120  A    between atoms: _307  and  _308
REMARK  121  A    between atoms: _307  and  _310
REMARK  122  A    between atoms: _310  and  _311
REMARK  123  A    between atoms: _314  and  _316
REMARK  124  A    between atoms: _316  and  _317
REMARK  125  A    between atoms: _316  and  _319
REMARK  126  A    between atoms: _319  and  _320
REMARK  127  A    between atoms: _320  and  _321
REMARK  128  A    between atoms: _324  and  _326
REMARK  129  A    between atoms: _326  and  _327
REMARK  130  A    between atoms: _326  and  _329
REMARK  131  A    between atoms: _329  and  _330
REMARK  132  A    between atoms: _332  and  _334
REMARK  133  A    between atoms: _334  and  _335
REMARK  134  A    between atoms: _334  and  _337
REMARK  135  A    between atoms: _337  and  _338
REMARK  136  A    between atoms: _341  and  _343
REMARK  137  A    between atoms: _343  and  _344
REMARK  138  A    between atoms: _346  and  _348
REMARK  139  A    between atoms: _348  and  _349
REMARK  140  A    between atoms: _348  and  _351
REMARK  141  A    between atoms: _351  and  _352
REMARK  142  A    between atoms: _362  and  _364
REMARK  143  A    between atoms: _364  and  _365
REMARK  144  A    between atoms: _364  and  _367
REMARK  145  A    between atoms: _367  and  _368
REMARK  146  A    between atoms: _368  and  _369
REMARK  147  A    between atoms: _369  and  _370
REMARK  148  A    between atoms: _379  and  _381
REMARK  149  A    between atoms: _381  and  _382
REMARK  150  A    between atoms: _381  and  _384
REMARK  151  A    between atoms: _384  and  _385
REMARK  152  A    between atoms: _385  and  _386
REMARK  153  A    between atoms: _386  and  _387
REMARK  154  A    between atoms: _387  and  _388
REMARK  155  A    between atoms: _392  and  _394
REMARK  156  A    between atoms: _394  and  _395
REMARK  157  A    between atoms: _394  and  _397
REMARK  158  A    between atoms: _397  and  _398
REMARK  159  A    between atoms: _398  and  _399
REMARK  160  A    between atoms: _404  and  _406
REMARK  161  A    between atoms: _406  and  _407
REMARK  162  A    between atoms: _406  and  _409
REMARK  163  A    between atoms: _409  and  _410
REMARK                            x       y       z     vdW  Elec       q    Type
REMARK                         _______ _______ _______ _____ _____    ______ ____
ROOT
ATOM      1  O   HOH     1      23.158  10.733  21.089  0.00  0.00    +0.000 OA
ENDROOT
TORSDOF 0
REMARK  Name = ../refined-set-2016/3ujc/3ujc_pocket.pdb
REMARK  163 active torsions:
REMARK  status: ('A' for Active; 'I' for Inactive)
REMARK    1  A    between atoms: _1  and  _3
REMARK    2  A    between atoms: _3  and  _4
REMARK    3  A    between atoms: _3  and  _6
REMARK    4  A    between atoms: _6  and  _7
REMARK    5  A    between atoms: _7  and  _8
REMARK    6  A    between atoms: _13  and  _15
REMARK    7  A    between atoms: _15  and  _16
REMARK    8  A    between atoms: _15  and  _18
REMARK    9  A    between atoms: _18  and  _19
REMARK   10  A    between atoms: _24  and  _25
REMARK   11  A    between atoms: _27  and  _29
REMARK   12  A    between atoms: _29  and  _30
REMARK   13  A    between atoms: _32  and  _34
REMARK   14  A    between atoms: _34  and  _35
REMARK   15  A    between atoms: _34  and  _37
REMARK   16  A    between atoms: _37  and  _38
REMARK   17  A    between atoms: _43  and  _44
REMARK   18  A    between atoms: _46  and  _48
REMARK   19  A    between atoms: _48  and  _49
REMARK   20  A    between atoms: _48  and  _51
REMARK   21  A    between atoms: _51  and  _52
REMARK   22  A    between atoms: _55  and  _57
REMARK   23  A    between atoms: _57  and  _58
REMARK   24  A    between atoms: _57  and  _60
REMARK   25  A    between atoms: _60  and  _61
REMARK   26  A    between atoms: _67  and  _69
REMARK   27  A    between atoms: _69  and  _70
REMARK   28  A    between atoms: _69  and  _72
REMARK   29  A    between atoms: _72  and  _73
REMARK   30  A    between atoms: _78  and  _79
REMARK   31  A    between atoms: _81  and  _83
REMARK   32  A    between atoms: _83  and  _84
REMARK   33  A    between atoms: _83  and  _86
REMARK   34  A    between atoms: _86  and  _87
REMARK   35  A    between atoms: _90  and  _92
REMARK   36  A    between atoms: _92  and  _93
REMARK   37  A    between atoms: _92  and  _95
REMARK   38  A    between atoms: _95  and  _96
REMARK   39  A    between atoms: _98  and  _100
REMARK   40  A    between atoms: _100  and  _101
REMARK   41  A    between atoms: _100  and  _103
REMARK   42  A    between atoms: _103  and  _104
REMARK   43  A    between atoms: _106  and  _108
REMARK   44  A    between atoms: _108  and  _109
REMARK   45  A    between atoms: _111  and  _113
REMARK   46  A    between atoms: _113  and  _114
REMARK   47  A    between atoms: _116  and  _118
REMARK   48  A    between atoms: _118  and  _119
REMARK   49  A    between atoms: _121  and  _123
REMARK   50  A    between atoms: _123  and  _124
REMARK   51  A    between atoms: _126  and  _128
REMARK   52  A    between atoms: _128  and  _129
REMARK   53  A    between atoms: _128  and  _131
REMARK   54  A    between atoms: _131  and  _132
REMARK   55  A    between atoms: _135  and  _137
REMARK   56  A    between atoms: _137  and  _138
REMARK   57  A    between atoms: _137  and  _140
REMARK   58  A    between atoms: _140  and  _141
REMARK   59  A    between atoms: _141  and  _142
REMARK   60  A    between atoms: _142  and  _143
REMARK   61  A    between atoms: _152  and  _154
REMARK   62  A    between atoms: _154  and  _155
REMARK   63  A    between atoms: _154  and  _157
REMARK   64  A    between atoms: _157  and  _158
REMARK   65  A    between atoms: _161  and  _163
REMARK   66  A    between atoms: _163  and  _164
REMARK   67  A    between atoms: _167  and  _169
REMARK   68  A    between atoms: _169  and  _170
REMARK   69  A    between atoms: _169  and  _172
REMARK   70  A    between atoms: _172  and  _173
REMARK   71  A    between atoms: _176  and  _178
REMARK   72  A    between atoms: _178  and  _179
REMARK   73  A    between atoms: _178  and  _181
REMARK   74  A    between atoms: _181  and  _182
REMARK   75  A    between atoms: _185  and  _187
REMARK   76  A    between atoms: _187  and  _188
REMARK   77  A    between atoms: _191  and  _193
REMARK   78  A    between atoms: _193  and  _194
REMARK   79  A    between atoms: _193  and  _196
REMARK   80  A    between atoms: _196  and  _197
REMARK   81  A    between atoms: _200  and  _202
REMARK   82  A    between atoms: _202  and  _203
REMARK   83  A    between atoms: _202  and  _205
REMARK   84  A    between atoms: _205  and  _206
REMARK   85  A    between atoms: _209  and  _211
REMARK   86  A    between atoms: _211  and  _212
REMARK   87  A    between atoms: _211  and  _214
REMARK   88  A    between atoms: _214  and  _215
REMARK   89  A    between atoms: _220  and  _221
REMARK   90  A    between atoms: _223  and  _225
REMARK   91  A    between atoms: _225  and  _226
REMARK   92  A    between atoms: _225  and  _228
REMARK   93  A    between atoms: _228  and  _229
REMARK   94  A    between atoms: _234  and  _235
REMARK   95  A    between atoms: _237  and  _239
REMARK   96  A    between atoms: _239  and  _240
REMARK   97  A    between atoms: _239  and  _242
REMARK   98  A    between atoms: _242  and  _243
REMARK   99  A    between atoms: _243  and  _244
REMARK  100  A    between atoms: _249  and  _251
REMARK  101  A    between atoms: _251  and  _252
REMARK  102  A    between atoms: _251  and  _254
REMARK  103  A    between atoms: _254  and  _255
REMARK  104  A    between atoms: _255  and  _256
REMARK  105  A    between atoms: _256  and  _257
REMARK  106  A    between atoms: _266  and  _268
REMARK  107  A    between atoms: _268  and  _269
REMARK  108  A    between atoms: _268  and  _271
REMARK  109  A    between atoms: _271  and  _272
REMARK  110  A    between atoms: _277  and  _278
REMARK  111  A    between atoms: _280  and  _282
REMARK  112  A    between atoms: _282  and  _283
REMARK  113  A    between atoms: _282  and  _285
REMARK  114  A    between atoms: _285  and  _286
REMARK  115  A    between atoms: _289  and  _291
REMARK  116  A    between atoms: _291  and  _292
REMARK  117  A    between atoms: _291  and  _294
REMARK  118  A    between atoms: _294  and  _295
REMARK  119  A    between atoms: _305  and  _307
REMARK  120  A    between atoms: _307  and  _308
REMARK  121  A    between atoms: _307  and  _310
REMARK  122  A    between atoms: _310  and  _311
REMARK  123  A    between atoms: _314  and  _316
REMARK  124  A    between atoms: _316  and  _317
REMARK  125  A    between atoms: _316  and  _319
REMARK  126  A    between atoms: _319  and  _320
REMARK  127  A    between atoms: _320  and  _321
REMARK  128  A    between atoms: _324  and  _326
REMARK  129  A    between atoms: _326  and  _327
REMARK  130  A    between atoms: _326  and  _329
REMARK  131  A    between atoms: _329  and  _330
REMARK  132  A    between atoms: _332  and  _334
REMARK  133  A    between atoms: _334  and  _335
REMARK  134  A    between atoms: _334  and  _337
REMARK  135  A    between atoms: _337  and  _338
REMARK  136  A    between atoms: _341  and  _343
REMARK  137  A    between atoms: _343  and  _344
REMARK  138  A    between atoms: _346  and  _348
REMARK  139  A    between atoms: _348  and  _349
REMARK  140  A    between atoms: _348  and  _351
REMARK  141  A    between atoms: _351  and  _352
REMARK  142  A    between atoms: _362  and  _364
REMARK  143  A    between atoms: _364  and  _365
REMARK  144  A    between atoms: _364  and  _367
REMARK  145  A    between atoms: _367  and  _368
REMARK  146  A    between atoms: _368  and  _369
REMARK  147  A    between atoms: _369  and  _370
REMARK  148  A    between atoms: _379  and  _381
REMARK  149  A    between atoms: _381  and  _382
REMARK  150  A    between atoms: _381  and  _384
REMARK  151  A    between atoms: _384  and  _385
REMARK  152  A    between atoms: _385  and  _386
REMARK  153  A    between atoms: _386  and  _387
REMARK  154  A    between atoms: _387  and  _388
REMARK  155  A    between atoms: _392  and  _394
REMARK  156  A    between atoms: _394  and  _395
REMARK  157  A    between atoms: _394  and  _397
REMARK  158  A    between atoms: _397  and  _398
REMARK  159  A    between atoms: _398  and  _399
REMARK  160  A    between atoms: _404  and  _406
REMARK  161  A    between atoms: _406  and  _407
REMARK  162  A    between atoms: _406  and  _409
REMARK  163  A    between atoms: _409  and  _410
REMARK                            x       y       z     vdW  Elec       q    Type
REMARK                         _______ _______ _______ _____ _____    ______ ____
ROOT
ATOM      1  O   HOH     1      22.073  13.013  20.410  0.00  0.00    +0.000 OA
ENDROOT
TORSDOF 0
REMARK  Name = ../refined-set-2016/3ujc/3ujc_pocket.pdb
REMARK  163 active torsions:
REMARK  status: ('A' for Active; 'I' for Inactive)
REMARK    1  A    between atoms: _1  and  _3
REMARK    2  A    between atoms: _3  and  _4
REMARK    3  A    between atoms: _3  and  _6
REMARK    4  A    between atoms: _6  and  _7
REMARK    5  A    between atoms: _7  and  _8
REMARK    6  A    between atoms: _13  and  _15
REMARK    7  A    between atoms: _15  and  _16
REMARK    8  A    between atoms: _15  and  _18
REMARK    9  A    between atoms: _18  and  _19
REMARK   10  A    between atoms: _24  and  _25
REMARK   11  A    between atoms: _27  and  _29
REMARK   12  A    between atoms: _29  and  _30
REMARK   13  A    between atoms: _32  and  _34
REMARK   14  A    between atoms: _34  and  _35
REMARK   15  A    between atoms: _34  and  _37
REMARK   16  A    between atoms: _37  and  _38
REMARK   17  A    between atoms: _43  and  _44
REMARK   18  A    between atoms: _46  and  _48
REMARK   19  A    between atoms: _48  and  _49
REMARK   20  A    between atoms: _48  and  _51
REMARK   21  A    between atoms: _51  and  _52
REMARK   22  A    between atoms: _55  and  _57
REMARK   23  A    between atoms: _57  and  _58
REMARK   24  A    between atoms: _57  and  _60
REMARK   25  A    between atoms: _60  and  _61
REMARK   26  A    between atoms: _67  and  _69
REMARK   27  A    between atoms: _69  and  _70
REMARK   28  A    between atoms: _69  and  _72
REMARK   29  A    between atoms: _72  and  _73
REMARK   30  A    between atoms: _78  and  _79
REMARK   31  A    between atoms: _81  and  _83
REMARK   32  A    between atoms: _83  and  _84
REMARK   33  A    between atoms: _83  and  _86
REMARK   34  A    between atoms: _86  and  _87
REMARK   35  A    between atoms: _90  and  _92
REMARK   36  A    between atoms: _92  and  _93
REMARK   37  A    between atoms: _92  and  _95
REMARK   38  A    between atoms: _95  and  _96
REMARK   39  A    between atoms: _98  and  _100
REMARK   40  A    between atoms: _100  and  _101
REMARK   41  A    between atoms: _100  and  _103
REMARK   42  A    between atoms: _103  and  _104
REMARK   43  A    between atoms: _106  and  _108
REMARK   44  A    between atoms: _108  and  _109
REMARK   45  A    between atoms: _111  and  _113
REMARK   46  A    between atoms: _113  and  _114
REMARK   47  A    between atoms: _116  and  _118
REMARK   48  A    between atoms: _118  and  _119
REMARK   49  A    between atoms: _121  and  _123
REMARK   50  A    between atoms: _123  and  _124
REMARK   51  A    between atoms: _126  and  _128
REMARK   52  A    between atoms: _128  and  _129
REMARK   53  A    between atoms: _128  and  _131
REMARK   54  A    between atoms: _131  and  _132
REMARK   55  A    between atoms: _135  and  _137
REMARK   56  A    between atoms: _137  and  _138
REMARK   57  A    between atoms: _137  and  _140
REMARK   58  A    between atoms: _140  and  _141
REMARK   59  A    between atoms: _141  and  _142
REMARK   60  A    between atoms: _142  and  _143
REMARK   61  A    between atoms: _152  and  _154
REMARK   62  A    between atoms: _154  and  _155
REMARK   63  A    between atoms: _154  and  _157
REMARK   64  A    between atoms: _157  and  _158
REMARK   65  A    between atoms: _161  and  _163
REMARK   66  A    between atoms: _163  and  _164
REMARK   67  A    between atoms: _167  and  _169
REMARK   68  A    between atoms: _169  and  _170
REMARK   69  A    between atoms: _169  and  _172
REMARK   70  A    between atoms: _172  and  _173
REMARK   71  A    between atoms: _176  and  _178
REMARK   72  A    between atoms: _178  and  _179
REMARK   73  A    between atoms: _178  and  _181
REMARK   74  A    between atoms: _181  and  _182
REMARK   75  A    between atoms: _185  and  _187
REMARK   76  A    between atoms: _187  and  _188
REMARK   77  A    between atoms: _191  and  _193
REMARK   78  A    between atoms: _193  and  _194
REMARK   79  A    between atoms: _193  and  _196
REMARK   80  A    between atoms: _196  and  _197
REMARK   81  A    between atoms: _200  and  _202
REMARK   82  A    between atoms: _202  and  _203
REMARK   83  A    between atoms: _202  and  _205
REMARK   84  A    between atoms: _205  and  _206
REMARK   85  A    between atoms: _209  and  _211
REMARK   86  A    between atoms: _211  and  _212
REMARK   87  A    between atoms: _211  and  _214
REMARK   88  A    between atoms: _214  and  _215
REMARK   89  A    between atoms: _220  and  _221
REMARK   90  A    between atoms: _223  and  _225
REMARK   91  A    between atoms: _225  and  _226
REMARK   92  A    between atoms: _225  and  _228
REMARK   93  A    between atoms: _228  and  _229
REMARK   94  A    between atoms: _234  and  _235
REMARK   95  A    between atoms: _237  and  _239
REMARK   96  A    between atoms: _239  and  _240
REMARK   97  A    between atoms: _239  and  _242
REMARK   98  A    between atoms: _242  and  _243
REMARK   99  A    between atoms: _243  and  _244
REMARK  100  A    between atoms: _249  and  _251
REMARK  101  A    between atoms: _251  and  _252
REMARK  102  A    between atoms: _251  and  _254
REMARK  103  A    between atoms: _254  and  _255
REMARK  104  A    between atoms: _255  and  _256
REMARK  105  A    between atoms: _256  and  _257
REMARK  106  A    between atoms: _266  and  _268
REMARK  107  A    between atoms: _268  and  _269
REMARK  108  A    between atoms: _268  and  _271
REMARK  109  A    between atoms: _271  and  _272
REMARK  110  A    between atoms: _277  and  _278
REMARK  111  A    between atoms: _280  and  _282
REMARK  112  A    between atoms: _282  and  _283
REMARK  113  A    between atoms: _282  and  _285
REMARK  114  A    between atoms: _285  and  _286
REMARK  115  A    between atoms: _289  and  _291
REMARK  116  A    between atoms: _291  and  _292
REMARK  117  A    between atoms: _291  and  _294
REMARK  118  A    between atoms: _294  and  _295
REMARK  119  A    between atoms: _305  and  _307
REMARK  120  A    between atoms: _307  and  _308
REMARK  121  A    between atoms: _307  and  _310
REMARK  122  A    between atoms: _310  and  _311
REMARK  123  A    between atoms: _314  and  _316
REMARK  124  A    between atoms: _316  and  _317
REMARK  125  A    between atoms: _316  and  _319
REMARK  126  A    between atoms: _319  and  _320
REMARK  127  A    between atoms: _320  and  _321
REMARK  128  A    between atoms: _324  and  _326
REMARK  129  A    between atoms: _326  and  _327
REMARK  130  A    between atoms: _326  and  _329
REMARK  131  A    between atoms: _329  and  _330
REMARK  132  A    between atoms: _332  and  _334
REMARK  133  A    between atoms: _334  and  _335
REMARK  134  A    between atoms: _334  and  _337
REMARK  135  A    between atoms: _337  and  _338
REMARK  136  A    between atoms: _341  and  _343
REMARK  137  A    between atoms: _343  and  _344
REMARK  138  A    between atoms: _346  and  _348
REMARK  139  A    between atoms: _348  and  _349
REMARK  140  A    between atoms: _348  and  _351
REMARK  141  A    between atoms: _351  and  _352
REMARK  142  A    between atoms: _362  and  _364
REMARK  143  A    between atoms: _364  and  _365
REMARK  144  A    between atoms: _364  and  _367
REMARK  145  A    between atoms: _367  and  _368
REMARK  146  A    between atoms: _368  and  _369
REMARK  147  A    between atoms: _369  and  _370
REMARK  148  A    between atoms: _379  and  _381
REMARK  149  A    between atoms: _381  and  _382
REMARK  150  A    between atoms: _381  and  _384
REMARK  151  A    between atoms: _384  and  _385
REMARK  152  A    between atoms: _385  and  _386
REMARK  153  A    between atoms: _386  and  _387
REMARK  154  A    between atoms: _387  and  _388
REMARK  155  A    between atoms: _392  and  _394
REMARK  156  A    between atoms: _394  and  _395
REMARK  157  A    between atoms: _394  and  _397
REMARK  158  A    between atoms: _397  and  _398
REMARK  159  A    between atoms: _398  and  _399
REMARK  160  A    between atoms: _404  and  _406
REMARK  161  A    between atoms: _406  and  _407
REMARK  162  A    between atoms: _406  and  _409
REMARK  163  A    between atoms: _409  and  _410
REMARK                            x       y       z     vdW  Elec       q    Type
REMARK                         _______ _______ _______ _____ _____    ______ ____
ROOT
ATOM      1  O   HOH     1      24.046  15.036  20.539  0.00  0.00    +0.000 OA
ENDROOT
TORSDOF 0
REMARK  Name = ../refined-set-2016/3ujc/3ujc_pocket.pdb
REMARK  163 active torsions:
REMARK  status: ('A' for Active; 'I' for Inactive)
REMARK    1  A    between atoms: _1  and  _3
REMARK    2  A    between atoms: _3  and  _4
REMARK    3  A    between atoms: _3  and  _6
REMARK    4  A    between atoms: _6  and  _7
REMARK    5  A    between atoms: _7  and  _8
REMARK    6  A    between atoms: _13  and  _15
REMARK    7  A    between atoms: _15  and  _16
REMARK    8  A    between atoms: _15  and  _18
REMARK    9  A    between atoms: _18  and  _19
REMARK   10  A    between atoms: _24  and  _25
REMARK   11  A    between atoms: _27  and  _29
REMARK   12  A    between atoms: _29  and  _30
REMARK   13  A    between atoms: _32  and  _34
REMARK   14  A    between atoms: _34  and  _35
REMARK   15  A    between atoms: _34  and  _37
REMARK   16  A    between atoms: _37  and  _38
REMARK   17  A    between atoms: _43  and  _44
REMARK   18  A    between atoms: _46  and  _48
REMARK   19  A    between atoms: _48  and  _49
REMARK   20  A    between atoms: _48  and  _51
REMARK   21  A    between atoms: _51  and  _52
REMARK   22  A    between atoms: _55  and  _57
REMARK   23  A    between atoms: _57  and  _58
REMARK   24  A    between atoms: _57  and  _60
REMARK   25  A    between atoms: _60  and  _61
REMARK   26  A    between atoms: _67  and  _69
REMARK   27  A    between atoms: _69  and  _70
REMARK   28  A    between atoms: _69  and  _72
REMARK   29  A    between atoms: _72  and  _73
REMARK   30  A    between atoms: _78  and  _79
REMARK   31  A    between atoms: _81  and  _83
REMARK   32  A    between atoms: _83  and  _84
REMARK   33  A    between atoms: _83  and  _86
REMARK   34  A    between atoms: _86  and  _87
REMARK   35  A    between atoms: _90  and  _92
REMARK   36  A    between atoms: _92  and  _93
REMARK   37  A    between atoms: _92  and  _95
REMARK   38  A    between atoms: _95  and  _96
REMARK   39  A    between atoms: _98  and  _100
REMARK   40  A    between atoms: _100  and  _101
REMARK   41  A    between atoms: _100  and  _103
REMARK   42  A    between atoms: _103  and  _104
REMARK   43  A    between atoms: _106  and  _108
REMARK   44  A    between atoms: _108  and  _109
REMARK   45  A    between atoms: _111  and  _113
REMARK   46  A    between atoms: _113  and  _114
REMARK   47  A    between atoms: _116  and  _118
REMARK   48  A    between atoms: _118  and  _119
REMARK   49  A    between atoms: _121  and  _123
REMARK   50  A    between atoms: _123  and  _124
REMARK   51  A    between atoms: _126  and  _128
REMARK   52  A    between atoms: _128  and  _129
REMARK   53  A    between atoms: _128  and  _131
REMARK   54  A    between atoms: _131  and  _132
REMARK   55  A    between atoms: _135  and  _137
REMARK   56  A    between atoms: _137  and  _138
REMARK   57  A    between atoms: _137  and  _140
REMARK   58  A    between atoms: _140  and  _141
REMARK   59  A    between atoms: _141  and  _142
REMARK   60  A    between atoms: _142  and  _143
REMARK   61  A    between atoms: _152  and  _154
REMARK   62  A    between atoms: _154  and  _155
REMARK   63  A    between atoms: _154  and  _157
REMARK   64  A    between atoms: _157  and  _158
REMARK   65  A    between atoms: _161  and  _163
REMARK   66  A    between atoms: _163  and  _164
REMARK   67  A    between atoms: _167  and  _169
REMARK   68  A    between atoms: _169  and  _170
REMARK   69  A    between atoms: _169  and  _172
REMARK   70  A    between atoms: _172  and  _173
REMARK   71  A    between atoms: _176  and  _178
REMARK   72  A    between atoms: _178  and  _179
REMARK   73  A    between atoms: _178  and  _181
REMARK   74  A    between atoms: _181  and  _182
REMARK   75  A    between atoms: _185  and  _187
REMARK   76  A    between atoms: _187  and  _188
REMARK   77  A    between atoms: _191  and  _193
REMARK   78  A    between atoms: _193  and  _194
REMARK   79  A    between atoms: _193  and  _196
REMARK   80  A    between atoms: _196  and  _197
REMARK   81  A    between atoms: _200  and  _202
REMARK   82  A    between atoms: _202  and  _203
REMARK   83  A    between atoms: _202  and  _205
REMARK   84  A    between atoms: _205  and  _206
REMARK   85  A    between atoms: _209  and  _211
REMARK   86  A    between atoms: _211  and  _212
REMARK   87  A    between atoms: _211  and  _214
REMARK   88  A    between atoms: _214  and  _215
REMARK   89  A    between atoms: _220  and  _221
REMARK   90  A    between atoms: _223  and  _225
REMARK   91  A    between atoms: _225  and  _226
REMARK   92  A    between atoms: _225  and  _228
REMARK   93  A    between atoms: _228  and  _229
REMARK   94  A    between atoms: _234  and  _235
REMARK   95  A    between atoms: _237  and  _239
REMARK   96  A    between atoms: _239  and  _240
REMARK   97  A    between atoms: _239  and  _242
REMARK   98  A    between atoms: _242  and  _243
REMARK   99  A    between atoms: _243  and  _244
REMARK  100  A    between atoms: _249  and  _251
REMARK  101  A    between atoms: _251  and  _252
REMARK  102  A    between atoms: _251  and  _254
REMARK  103  A    between atoms: _254  and  _255
REMARK  104  A    between atoms: _255  and  _256
REMARK  105  A    between atoms: _256  and  _257
REMARK  106  A    between atoms: _266  and  _268
REMARK  107  A    between atoms: _268  and  _269
REMARK  108  A    between atoms: _268  and  _271
REMARK  109  A    between atoms: _271  and  _272
REMARK  110  A    between atoms: _277  and  _278
REMARK  111  A    between atoms: _280  and  _282
REMARK  112  A    between atoms: _282  and  _283
REMARK  113  A    between atoms: _282  and  _285
REMARK  114  A    between atoms: _285  and  _286
REMARK  115  A    between atoms: _289  and  _291
REMARK  116  A    between atoms: _291  and  _292
REMARK  117  A    between atoms: _291  and  _294
REMARK  118  A    between atoms: _294  and  _295
REMARK  119  A    between atoms: _305  and  _307
REMARK  120  A    between atoms: _307  and  _308
REMARK  121  A    between atoms: _307  and  _310
REMARK  122  A    between atoms: _310  and  _311
REMARK  123  A    between atoms: _314  and  _316
REMARK  124  A    between atoms: _316  and  _317
REMARK  125  A    between atoms: _316  and  _319
REMARK  126  A    between atoms: _319  and  _320
REMARK  127  A    between atoms: _320  and  _321
REMARK  128  A    between atoms: _324  and  _326
REMARK  129  A    between atoms: _326  and  _327
REMARK  130  A    between atoms: _326  and  _329
REMARK  131  A    between atoms: _329  and  _330
REMARK  132  A    between atoms: _332  and  _334
REMARK  133  A    between atoms: _334  and  _335
REMARK  134  A    between atoms: _334  and  _337
REMARK  135  A    between atoms: _337  and  _338
REMARK  136  A    between atoms: _341  and  _343
REMARK  137  A    between atoms: _343  and  _344
REMARK  138  A    between atoms: _346  and  _348
REMARK  139  A    between atoms: _348  and  _349
REMARK  140  A    between atoms: _348  and  _351
REMARK  141  A    between atoms: _351  and  _352
REMARK  142  A    between atoms: _362  and  _364
REMARK  143  A    between atoms: _364  and  _365
REMARK  144  A    between atoms: _364  and  _367
REMARK  145  A    between atoms: _367  and  _368
REMARK  146  A    between atoms: _368  and  _369
REMARK  147  A    between atoms: _369  and  _370
REMARK  148  A    between atoms: _379  and  _381
REMARK  149  A    between atoms: _381  and  _382
REMARK  150  A    between atoms: _381  and  _384
REMARK  151  A    between atoms: _384  and  _385
REMARK  152  A    between atoms: _385  and  _386
REMARK  153  A    between atoms: _386  and  _387
REMARK  154  A    between atoms: _387  and  _388
REMARK  155  A    between atoms: _392  and  _394
REMARK  156  A    between atoms: _394  and  _395
REMARK  157  A    between atoms: _394  and  _397
REMARK  158  A    between atoms: _397  and  _398
REMARK  159  A    between atoms: _398  and  _399
REMARK  160  A    between atoms: _404  and  _406
REMARK  161  A    between atoms: _406  and  _407
REMARK  162  A    between atoms: _406  and  _409
REMARK  163  A    between atoms: _409  and  _410
REMARK                            x       y       z     vdW  Elec       q    Type
REMARK                         _______ _______ _______ _____ _____    ______ ____
ROOT
ATOM      1  O   HOH     1      15.817   2.193  22.967  0.00  0.00    +0.000 OA
ENDROOT
TORSDOF 0
REMARK  Name = ../refined-set-2016/3ujc/3ujc_pocket.pdb
REMARK  163 active torsions:
REMARK  status: ('A' for Active; 'I' for Inactive)
REMARK    1  A    between atoms: _1  and  _3
REMARK    2  A    between atoms: _3  and  _4
REMARK    3  A    between atoms: _3  and  _6
REMARK    4  A    between atoms: _6  and  _7
REMARK    5  A    between atoms: _7  and  _8
REMARK    6  A    between atoms: _13  and  _15
REMARK    7  A    between atoms: _15  and  _16
REMARK    8  A    between atoms: _15  and  _18
REMARK    9  A    between atoms: _18  and  _19
REMARK   10  A    between atoms: _24  and  _25
REMARK   11  A    between atoms: _27  and  _29
REMARK   12  A    between atoms: _29  and  _30
REMARK   13  A    between atoms: _32  and  _34
REMARK   14  A    between atoms: _34  and  _35
REMARK   15  A    between atoms: _34  and  _37
REMARK   16  A    between atoms: _37  and  _38
REMARK   17  A    between atoms: _43  and  _44
REMARK   18  A    between atoms: _46  and  _48
REMARK   19  A    between atoms: _48  and  _49
REMARK   20  A    between atoms: _48  and  _51
REMARK   21  A    between atoms: _51  and  _52
REMARK   22  A    between atoms: _55  and  _57
REMARK   23  A    between atoms: _57  and  _58
REMARK   24  A    between atoms: _57  and  _60
REMARK   25  A    between atoms: _60  and  _61
REMARK   26  A    between atoms: _67  and  _69
REMARK   27  A    between atoms: _69  and  _70
REMARK   28  A    between atoms: _69  and  _72
REMARK   29  A    between atoms: _72  and  _73
REMARK   30  A    between atoms: _78  and  _79
REMARK   31  A    between atoms: _81  and  _83
REMARK   32  A    between atoms: _83  and  _84
REMARK   33  A    between atoms: _83  and  _86
REMARK   34  A    between atoms: _86  and  _87
REMARK   35  A    between atoms: _90  and  _92
REMARK   36  A    between atoms: _92  and  _93
REMARK   37  A    between atoms: _92  and  _95
REMARK   38  A    between atoms: _95  and  _96
REMARK   39  A    between atoms: _98  and  _100
REMARK   40  A    between atoms: _100  and  _101
REMARK   41  A    between atoms: _100  and  _103
REMARK   42  A    between atoms: _103  and  _104
REMARK   43  A    between atoms: _106  and  _108
REMARK   44  A    between atoms: _108  and  _109
REMARK   45  A    between atoms: _111  and  _113
REMARK   46  A    between atoms: _113  and  _114
REMARK   47  A    between atoms: _116  and  _118
REMARK   48  A    between atoms: _118  and  _119
REMARK   49  A    between atoms: _121  and  _123
REMARK   50  A    between atoms: _123  and  _124
REMARK   51  A    between atoms: _126  and  _128
REMARK   52  A    between atoms: _128  and  _129
REMARK   53  A    between atoms: _128  and  _131
REMARK   54  A    between atoms: _131  and  _132
REMARK   55  A    between atoms: _135  and  _137
REMARK   56  A    between atoms: _137  and  _138
REMARK   57  A    between atoms: _137  and  _140
REMARK   58  A    between atoms: _140  and  _141
REMARK   59  A    between atoms: _141  and  _142
REMARK   60  A    between atoms: _142  and  _143
REMARK   61  A    between atoms: _152  and  _154
REMARK   62  A    between atoms: _154  and  _155
REMARK   63  A    between atoms: _154  and  _157
REMARK   64  A    between atoms: _157  and  _158
REMARK   65  A    between atoms: _161  and  _163
REMARK   66  A    between atoms: _163  and  _164
REMARK   67  A    between atoms: _167  and  _169
REMARK   68  A    between atoms: _169  and  _170
REMARK   69  A    between atoms: _169  and  _172
REMARK   70  A    between atoms: _172  and  _173
REMARK   71  A    between atoms: _176  and  _178
REMARK   72  A    between atoms: _178  and  _179
REMARK   73  A    between atoms: _178  and  _181
REMARK   74  A    between atoms: _181  and  _182
REMARK   75  A    between atoms: _185  and  _187
REMARK   76  A    between atoms: _187  and  _188
REMARK   77  A    between atoms: _191  and  _193
REMARK   78  A    between atoms: _193  and  _194
REMARK   79  A    between atoms: _193  and  _196
REMARK   80  A    between atoms: _196  and  _197
REMARK   81  A    between atoms: _200  and  _202
REMARK   82  A    between atoms: _202  and  _203
REMARK   83  A    between atoms: _202  and  _205
REMARK   84  A    between atoms: _205  and  _206
REMARK   85  A    between atoms: _209  and  _211
REMARK   86  A    between atoms: _211  and  _212
REMARK   87  A    between atoms: _211  and  _214
REMARK   88  A    between atoms: _214  and  _215
REMARK   89  A    between atoms: _220  and  _221
REMARK   90  A    between atoms: _223  and  _225
REMARK   91  A    between atoms: _225  and  _226
REMARK   92  A    between atoms: _225  and  _228
REMARK   93  A    between atoms: _228  and  _229
REMARK   94  A    between atoms: _234  and  _235
REMARK   95  A    between atoms: _237  and  _239
REMARK   96  A    between atoms: _239  and  _240
REMARK   97  A    between atoms: _239  and  _242
REMARK   98  A    between atoms: _242  and  _243
REMARK   99  A    between atoms: _243  and  _244
REMARK  100  A    between atoms: _249  and  _251
REMARK  101  A    between atoms: _251  and  _252
REMARK  102  A    between atoms: _251  and  _254
REMARK  103  A    between atoms: _254  and  _255
REMARK  104  A    between atoms: _255  and  _256
REMARK  105  A    between atoms: _256  and  _257
REMARK  106  A    between atoms: _266  and  _268
REMARK  107  A    between atoms: _268  and  _269
REMARK  108  A    between atoms: _268  and  _271
REMARK  109  A    between atoms: _271  and  _272
REMARK  110  A    between atoms: _277  and  _278
REMARK  111  A    between atoms: _280  and  _282
REMARK  112  A    between atoms: _282  and  _283
REMARK  113  A    between atoms: _282  and  _285
REMARK  114  A    between atoms: _285  and  _286
REMARK  115  A    between atoms: _289  and  _291
REMARK  116  A    between atoms: _291  and  _292
REMARK  117  A    between atoms: _291  and  _294
REMARK  118  A    between atoms: _294  and  _295
REMARK  119  A    between atoms: _305  and  _307
REMARK  120  A    between atoms: _307  and  _308
REMARK  121  A    between atoms: _307  and  _310
REMARK  122  A    between atoms: _310  and  _311
REMARK  123  A    between atoms: _314  and  _316
REMARK  124  A    between atoms: _316  and  _317
REMARK  125  A    between atoms: _316  and  _319
REMARK  126  A    between atoms: _319  and  _320
REMARK  127  A    between atoms: _320  and  _321
REMARK  128  A    between atoms: _324  and  _326
REMARK  129  A    between atoms: _326  and  _327
REMARK  130  A    between atoms: _326  and  _329
REMARK  131  A    between atoms: _329  and  _330
REMARK  132  A    between atoms: _332  and  _334
REMARK  133  A    between atoms: _334  and  _335
REMARK  134  A    between atoms: _334  and  _337
REMARK  135  A    between atoms: _337  and  _338
REMARK  136  A    between atoms: _341  and  _343
REMARK  137  A    between atoms: _343  and  _344
REMARK  138  A    between atoms: _346  and  _348
REMARK  139  A    between atoms: _348  and  _349
REMARK  140  A    between atoms: _348  and  _351
REMARK  141  A    between atoms: _351  and  _352
REMARK  142  A    between atoms: _362  and  _364
REMARK  143  A    between atoms: _364  and  _365
REMARK  144  A    between atoms: _364  and  _367
REMARK  145  A    between atoms: _367  and  _368
REMARK  146  A    between atoms: _368  and  _369
REMARK  147  A    between atoms: _369  and  _370
REMARK  148  A    between atoms: _379  and  _381
REMARK  149  A    between atoms: _381  and  _382
REMARK  150  A    between atoms: _381  and  _384
REMARK  151  A    between atoms: _384  and  _385
REMARK  152  A    between atoms: _385  and  _386
REMARK  153  A    between atoms: _386  and  _387
REMARK  154  A    between atoms: _387  and  _388
REMARK  155  A    between atoms: _392  and  _394
REMARK  156  A    between atoms: _394  and  _395
REMARK  157  A    between atoms: _394  and  _397
REMARK  158  A    between atoms: _397  and  _398
REMARK  159  A    between atoms: _398  and  _399
REMARK  160  A    between atoms: _404  and  _406
REMARK  161  A    between atoms: _406  and  _407
REMARK  162  A    between atoms: _406  and  _409
REMARK  163  A    between atoms: _409  and  _410
REMARK                            x       y       z     vdW  Elec       q    Type
REMARK                         _______ _______ _______ _____ _____    ______ ____
ROOT
ATOM      1  O   HOH     1      15.474   2.548  20.119  0.00  0.00    +0.000 OA
ENDROOT
TORSDOF 0
REMARK  Name = ../refined-set-2016/3ujc/3ujc_pocket.pdb
REMARK  163 active torsions:
REMARK  status: ('A' for Active; 'I' for Inactive)
REMARK    1  A    between atoms: _1  and  _3
REMARK    2  A    between atoms: _3  and  _4
REMARK    3  A    between atoms: _3  and  _6
REMARK    4  A    between atoms: _6  and  _7
REMARK    5  A    between atoms: _7  and  _8
REMARK    6  A    between atoms: _13  and  _15
REMARK    7  A    between atoms: _15  and  _16
REMARK    8  A    between atoms: _15  and  _18
REMARK    9  A    between atoms: _18  and  _19
REMARK   10  A    between atoms: _24  and  _25
REMARK   11  A    between atoms: _27  and  _29
REMARK   12  A    between atoms: _29  and  _30
REMARK   13  A    between atoms: _32  and  _34
REMARK   14  A    between atoms: _34  and  _35
REMARK   15  A    between atoms: _34  and  _37
REMARK   16  A    between atoms: _37  and  _38
REMARK   17  A    between atoms: _43  and  _44
REMARK   18  A    between atoms: _46  and  _48
REMARK   19  A    between atoms: _48  and  _49
REMARK   20  A    between atoms: _48  and  _51
REMARK   21  A    between atoms: _51  and  _52
REMARK   22  A    between atoms: _55  and  _57
REMARK   23  A    between atoms: _57  and  _58
REMARK   24  A    between atoms: _57  and  _60
REMARK   25  A    between atoms: _60  and  _61
REMARK   26  A    between atoms: _67  and  _69
REMARK   27  A    between atoms: _69  and  _70
REMARK   28  A    between atoms: _69  and  _72
REMARK   29  A    between atoms: _72  and  _73
REMARK   30  A    between atoms: _78  and  _79
REMARK   31  A    between atoms: _81  and  _83
REMARK   32  A    between atoms: _83  and  _84
REMARK   33  A    between atoms: _83  and  _86
REMARK   34  A    between atoms: _86  and  _87
REMARK   35  A    between atoms: _90  and  _92
REMARK   36  A    between atoms: _92  and  _93
REMARK   37  A    between atoms: _92  and  _95
REMARK   38  A    between atoms: _95  and  _96
REMARK   39  A    between atoms: _98  and  _100
REMARK   40  A    between atoms: _100  and  _101
REMARK   41  A    between atoms: _100  and  _103
REMARK   42  A    between atoms: _103  and  _104
REMARK   43  A    between atoms: _106  and  _108
REMARK   44  A    between atoms: _108  and  _109
REMARK   45  A    between atoms: _111  and  _113
REMARK   46  A    between atoms: _113  and  _114
REMARK   47  A    between atoms: _116  and  _118
REMARK   48  A    between atoms: _118  and  _119
REMARK   49  A    between atoms: _121  and  _123
REMARK   50  A    between atoms: _123  and  _124
REMARK   51  A    between atoms: _126  and  _128
REMARK   52  A    between atoms: _128  and  _129
REMARK   53  A    between atoms: _128  and  _131
REMARK   54  A    between atoms: _131  and  _132
REMARK   55  A    between atoms: _135  and  _137
REMARK   56  A    between atoms: _137  and  _138
REMARK   57  A    between atoms: _137  and  _140
REMARK   58  A    between atoms: _140  and  _141
REMARK   59  A    between atoms: _141  and  _142
REMARK   60  A    between atoms: _142  and  _143
REMARK   61  A    between atoms: _152  and  _154
REMARK   62  A    between atoms: _154  and  _155
REMARK   63  A    between atoms: _154  and  _157
REMARK   64  A    between atoms: _157  and  _158
REMARK   65  A    between atoms: _161  and  _163
REMARK   66  A    between atoms: _163  and  _164
REMARK   67  A    between atoms: _167  and  _169
REMARK   68  A    between atoms: _169  and  _170
REMARK   69  A    between atoms: _169  and  _172
REMARK   70  A    between atoms: _172  and  _173
REMARK   71  A    between atoms: _176  and  _178
REMARK   72  A    between atoms: _178  and  _179
REMARK   73  A    between atoms: _178  and  _181
REMARK   74  A    between atoms: _181  and  _182
REMARK   75  A    between atoms: _185  and  _187
REMARK   76  A    between atoms: _187  and  _188
REMARK   77  A    between atoms: _191  and  _193
REMARK   78  A    between atoms: _193  and  _194
REMARK   79  A    between atoms: _193  and  _196
REMARK   80  A    between atoms: _196  and  _197
REMARK   81  A    between atoms: _200  and  _202
REMARK   82  A    between atoms: _202  and  _203
REMARK   83  A    between atoms: _202  and  _205
REMARK   84  A    between atoms: _205  and  _206
REMARK   85  A    between atoms: _209  and  _211
REMARK   86  A    between atoms: _211  and  _212
REMARK   87  A    between atoms: _211  and  _214
REMARK   88  A    between atoms: _214  and  _215
REMARK   89  A    between atoms: _220  and  _221
REMARK   90  A    between atoms: _223  and  _225
REMARK   91  A    between atoms: _225  and  _226
REMARK   92  A    between atoms: _225  and  _228
REMARK   93  A    between atoms: _228  and  _229
REMARK   94  A    between atoms: _234  and  _235
REMARK   95  A    between atoms: _237  and  _239
REMARK   96  A    between atoms: _239  and  _240
REMARK   97  A    between atoms: _239  and  _242
REMARK   98  A    between atoms: _242  and  _243
REMARK   99  A    between atoms: _243  and  _244
REMARK  100  A    between atoms: _249  and  _251
REMARK  101  A    between atoms: _251  and  _252
REMARK  102  A    between atoms: _251  and  _254
REMARK  103  A    between atoms: _254  and  _255
REMARK  104  A    between atoms: _255  and  _256
REMARK  105  A    between atoms: _256  and  _257
REMARK  106  A    between atoms: _266  and  _268
REMARK  107  A    between atoms: _268  and  _269
REMARK  108  A    between atoms: _268  and  _271
REMARK  109  A    between atoms: _271  and  _272
REMARK  110  A    between atoms: _277  and  _278
REMARK  111  A    between atoms: _280  and  _282
REMARK  112  A    between atoms: _282  and  _283
REMARK  113  A    between atoms: _282  and  _285
REMARK  114  A    between atoms: _285  and  _286
REMARK  115  A    between atoms: _289  and  _291
REMARK  116  A    between atoms: _291  and  _292
REMARK  117  A    between atoms: _291  and  _294
REMARK  118  A    between atoms: _294  and  _295
REMARK  119  A    between atoms: _305  and  _307
REMARK  120  A    between atoms: _307  and  _308
REMARK  121  A    between atoms: _307  and  _310
REMARK  122  A    between atoms: _310  and  _311
REMARK  123  A    between atoms: _314  and  _316
REMARK  124  A    between atoms: _316  and  _317
REMARK  125  A    between atoms: _316  and  _319
REMARK  126  A    between atoms: _319  and  _320
REMARK  127  A    between atoms: _320  and  _321
REMARK  128  A    between atoms: _324  and  _326
REMARK  129  A    between atoms: _326  and  _327
REMARK  130  A    between atoms: _326  and  _329
REMARK  131  A    between atoms: _329  and  _330
REMARK  132  A    between atoms: _332  and  _334
REMARK  133  A    between atoms: _334  and  _335
REMARK  134  A    between atoms: _334  and  _337
REMARK  135  A    between atoms: _337  and  _338
REMARK  136  A    between atoms: _341  and  _343
REMARK  137  A    between atoms: _343  and  _344
REMARK  138  A    between atoms: _346  and  _348
REMARK  139  A    between atoms: _348  and  _349
REMARK  140  A    between atoms: _348  and  _351
REMARK  141  A    between atoms: _351  and  _352
REMARK  142  A    between atoms: _362  and  _364
REMARK  143  A    between atoms: _364  and  _365
REMARK  144  A    between atoms: _364  and  _367
REMARK  145  A    between atoms: _367  and  _368
REMARK  146  A    between atoms: _368  and  _369
REMARK  147  A    between atoms: _369  and  _370
REMARK  148  A    between atoms: _379  and  _381
REMARK  149  A    between atoms: _381  and  _382
REMARK  150  A    between atoms: _381  and  _384
REMARK  151  A    between atoms: _384  and  _385
REMARK  152  A    between atoms: _385  and  _386
REMARK  153  A    between atoms: _386  and  _387
REMARK  154  A    between atoms: _387  and  _388
REMARK  155  A    between atoms: _392  and  _394
REMARK  156  A    between atoms: _394  and  _395
REMARK  157  A    between atoms: _394  and  _397
REMARK  158  A    between atoms: _397  and  _398
REMARK  159  A    between atoms: _398  and  _399
REMARK  160  A    between atoms: _404  and  _406
REMARK  161  A    between atoms: _406  and  _407
REMARK  162  A    between atoms: _406  and  _409
REMARK  163  A    between atoms: _409  and  _410
REMARK                            x       y       z     vdW  Elec       q    Type
REMARK                         _______ _______ _______ _____ _____    ______ ____
ROOT
ATOM      1  O   HOH     1      11.793   7.225  21.619  0.00  0.00    +0.000 OA
ENDROOT
TORSDOF 0
REMARK  Name = ../refined-set-2016/3ujc/3ujc_pocket.pdb
REMARK  163 active torsions:
REMARK  status: ('A' for Active; 'I' for Inactive)
REMARK    1  A    between atoms: _1  and  _3
REMARK    2  A    between atoms: _3  and  _4
REMARK    3  A    between atoms: _3  and  _6
REMARK    4  A    between atoms: _6  and  _7
REMARK    5  A    between atoms: _7  and  _8
REMARK    6  A    between atoms: _13  and  _15
REMARK    7  A    between atoms: _15  and  _16
REMARK    8  A    between atoms: _15  and  _18
REMARK    9  A    between atoms: _18  and  _19
REMARK   10  A    between atoms: _24  and  _25
REMARK   11  A    between atoms: _27  and  _29
REMARK   12  A    between atoms: _29  and  _30
REMARK   13  A    between atoms: _32  and  _34
REMARK   14  A    between atoms: _34  and  _35
REMARK   15  A    between atoms: _34  and  _37
REMARK   16  A    between atoms: _37  and  _38
REMARK   17  A    between atoms: _43  and  _44
REMARK   18  A    between atoms: _46  and  _48
REMARK   19  A    between atoms: _48  and  _49
REMARK   20  A    between atoms: _48  and  _51
REMARK   21  A    between atoms: _51  and  _52
REMARK   22  A    between atoms: _55  and  _57
REMARK   23  A    between atoms: _57  and  _58
REMARK   24  A    between atoms: _57  and  _60
REMARK   25  A    between atoms: _60  and  _61
REMARK   26  A    between atoms: _67  and  _69
REMARK   27  A    between atoms: _69  and  _70
REMARK   28  A    between atoms: _69  and  _72
REMARK   29  A    between atoms: _72  and  _73
REMARK   30  A    between atoms: _78  and  _79
REMARK   31  A    between atoms: _81  and  _83
REMARK   32  A    between atoms: _83  and  _84
REMARK   33  A    between atoms: _83  and  _86
REMARK   34  A    between atoms: _86  and  _87
REMARK   35  A    between atoms: _90  and  _92
REMARK   36  A    between atoms: _92  and  _93
REMARK   37  A    between atoms: _92  and  _95
REMARK   38  A    between atoms: _95  and  _96
REMARK   39  A    between atoms: _98  and  _100
REMARK   40  A    between atoms: _100  and  _101
REMARK   41  A    between atoms: _100  and  _103
REMARK   42  A    between atoms: _103  and  _104
REMARK   43  A    between atoms: _106  and  _108
REMARK   44  A    between atoms: _108  and  _109
REMARK   45  A    between atoms: _111  and  _113
REMARK   46  A    between atoms: _113  and  _114
REMARK   47  A    between atoms: _116  and  _118
REMARK   48  A    between atoms: _118  and  _119
REMARK   49  A    between atoms: _121  and  _123
REMARK   50  A    between atoms: _123  and  _124
REMARK   51  A    between atoms: _126  and  _128
REMARK   52  A    between atoms: _128  and  _129
REMARK   53  A    between atoms: _128  and  _131
REMARK   54  A    between atoms: _131  and  _132
REMARK   55  A    between atoms: _135  and  _137
REMARK   56  A    between atoms: _137  and  _138
REMARK   57  A    between atoms: _137  and  _140
REMARK   58  A    between atoms: _140  and  _141
REMARK   59  A    between atoms: _141  and  _142
REMARK   60  A    between atoms: _142  and  _143
REMARK   61  A    between atoms: _152  and  _154
REMARK   62  A    between atoms: _154  and  _155
REMARK   63  A    between atoms: _154  and  _157
REMARK   64  A    between atoms: _157  and  _158
REMARK   65  A    between atoms: _161  and  _163
REMARK   66  A    between atoms: _163  and  _164
REMARK   67  A    between atoms: _167  and  _169
REMARK   68  A    between atoms: _169  and  _170
REMARK   69  A    between atoms: _169  and  _172
REMARK   70  A    between atoms: _172  and  _173
REMARK   71  A    between atoms: _176  and  _178
REMARK   72  A    between atoms: _178  and  _179
REMARK   73  A    between atoms: _178  and  _181
REMARK   74  A    between atoms: _181  and  _182
REMARK   75  A    between atoms: _185  and  _187
REMARK   76  A    between atoms: _187  and  _188
REMARK   77  A    between atoms: _191  and  _193
REMARK   78  A    between atoms: _193  and  _194
REMARK   79  A    between atoms: _193  and  _196
REMARK   80  A    between atoms: _196  and  _197
REMARK   81  A    between atoms: _200  and  _202
REMARK   82  A    between atoms: _202  and  _203
REMARK   83  A    between atoms: _202  and  _205
REMARK   84  A    between atoms: _205  and  _206
REMARK   85  A    between atoms: _209  and  _211
REMARK   86  A    between atoms: _211  and  _212
REMARK   87  A    between atoms: _211  and  _214
REMARK   88  A    between atoms: _214  and  _215
REMARK   89  A    between atoms: _220  and  _221
REMARK   90  A    between atoms: _223  and  _225
REMARK   91  A    between atoms: _225  and  _226
REMARK   92  A    between atoms: _225  and  _228
REMARK   93  A    between atoms: _228  and  _229
REMARK   94  A    between atoms: _234  and  _235
REMARK   95  A    between atoms: _237  and  _239
REMARK   96  A    between atoms: _239  and  _240
REMARK   97  A    between atoms: _239  and  _242
REMARK   98  A    between atoms: _242  and  _243
REMARK   99  A    between atoms: _243  and  _244
REMARK  100  A    between atoms: _249  and  _251
REMARK  101  A    between atoms: _251  and  _252
REMARK  102  A    between atoms: _251  and  _254
REMARK  103  A    between atoms: _254  and  _255
REMARK  104  A    between atoms: _255  and  _256
REMARK  105  A    between atoms: _256  and  _257
REMARK  106  A    between atoms: _266  and  _268
REMARK  107  A    between atoms: _268  and  _269
REMARK  108  A    between atoms: _268  and  _271
REMARK  109  A    between atoms: _271  and  _272
REMARK  110  A    between atoms: _277  and  _278
REMARK  111  A    between atoms: _280  and  _282
REMARK  112  A    between atoms: _282  and  _283
REMARK  113  A    between atoms: _282  and  _285
REMARK  114  A    between atoms: _285  and  _286
REMARK  115  A    between atoms: _289  and  _291
REMARK  116  A    between atoms: _291  and  _292
REMARK  117  A    between atoms: _291  and  _294
REMARK  118  A    between atoms: _294  and  _295
REMARK  119  A    between atoms: _305  and  _307
REMARK  120  A    between atoms: _307  and  _308
REMARK  121  A    between atoms: _307  and  _310
REMARK  122  A    between atoms: _310  and  _311
REMARK  123  A    between atoms: _314  and  _316
REMARK  124  A    between atoms: _316  and  _317
REMARK  125  A    between atoms: _316  and  _319
REMARK  126  A    between atoms: _319  and  _320
REMARK  127  A    between atoms: _320  and  _321
REMARK  128  A    between atoms: _324  and  _326
REMARK  129  A    between atoms: _326  and  _327
REMARK  130  A    between atoms: _326  and  _329
REMARK  131  A    between atoms: _329  and  _330
REMARK  132  A    between atoms: _332  and  _334
REMARK  133  A    between atoms: _334  and  _335
REMARK  134  A    between atoms: _334  and  _337
REMARK  135  A    between atoms: _337  and  _338
REMARK  136  A    between atoms: _341  and  _343
REMARK  137  A    between atoms: _343  and  _344
REMARK  138  A    between atoms: _346  and  _348
REMARK  139  A    between atoms: _348  and  _349
REMARK  140  A    between atoms: _348  and  _351
REMARK  141  A    between atoms: _351  and  _352
REMARK  142  A    between atoms: _362  and  _364
REMARK  143  A    between atoms: _364  and  _365
REMARK  144  A    between atoms: _364  and  _367
REMARK  145  A    between atoms: _367  and  _368
REMARK  146  A    between atoms: _368  and  _369
REMARK  147  A    between atoms: _369  and  _370
REMARK  148  A    between atoms: _379  and  _381
REMARK  149  A    between atoms: _381  and  _382
REMARK  150  A    between atoms: _381  and  _384
REMARK  151  A    between atoms: _384  and  _385
REMARK  152  A    between atoms: _385  and  _386
REMARK  153  A    between atoms: _386  and  _387
REMARK  154  A    between atoms: _387  and  _388
REMARK  155  A    between atoms: _392  and  _394
REMARK  156  A    between atoms: _394  and  _395
REMARK  157  A    between atoms: _394  and  _397
REMARK  158  A    between atoms: _397  and  _398
REMARK  159  A    between atoms: _398  and  _399
REMARK  160  A    between atoms: _404  and  _406
REMARK  161  A    between atoms: _406  and  _407
REMARK  162  A    between atoms: _406  and  _409
REMARK  163  A    between atoms: _409  and  _410
REMARK                            x       y       z     vdW  Elec       q    Type
REMARK                         _______ _______ _______ _____ _____    ______ ____
ROOT
ATOM      1  O   HOH     1      10.112  16.398  18.482  0.00  0.00    +0.000 OA
ENDROOT
TORSDOF 0
REMARK  Name = ../refined-set-2016/3ujc/3ujc_pocket.pdb
REMARK  163 active torsions:
REMARK  status: ('A' for Active; 'I' for Inactive)
REMARK    1  A    between atoms: _1  and  _3
REMARK    2  A    between atoms: _3  and  _4
REMARK    3  A    between atoms: _3  and  _6
REMARK    4  A    between atoms: _6  and  _7
REMARK    5  A    between atoms: _7  and  _8
REMARK    6  A    between atoms: _13  and  _15
REMARK    7  A    between atoms: _15  and  _16
REMARK    8  A    between atoms: _15  and  _18
REMARK    9  A    between atoms: _18  and  _19
REMARK   10  A    between atoms: _24  and  _25
REMARK   11  A    between atoms: _27  and  _29
REMARK   12  A    between atoms: _29  and  _30
REMARK   13  A    between atoms: _32  and  _34
REMARK   14  A    between atoms: _34  and  _35
REMARK   15  A    between atoms: _34  and  _37
REMARK   16  A    between atoms: _37  and  _38
REMARK   17  A    between atoms: _43  and  _44
REMARK   18  A    between atoms: _46  and  _48
REMARK   19  A    between atoms: _48  and  _49
REMARK   20  A    between atoms: _48  and  _51
REMARK   21  A    between atoms: _51  and  _52
REMARK   22  A    between atoms: _55  and  _57
REMARK   23  A    between atoms: _57  and  _58
REMARK   24  A    between atoms: _57  and  _60
REMARK   25  A    between atoms: _60  and  _61
REMARK   26  A    between atoms: _67  and  _69
REMARK   27  A    between atoms: _69  and  _70
REMARK   28  A    between atoms: _69  and  _72
REMARK   29  A    between atoms: _72  and  _73
REMARK   30  A    between atoms: _78  and  _79
REMARK   31  A    between atoms: _81  and  _83
REMARK   32  A    between atoms: _83  and  _84
REMARK   33  A    between atoms: _83  and  _86
REMARK   34  A    between atoms: _86  and  _87
REMARK   35  A    between atoms: _90  and  _92
REMARK   36  A    between atoms: _92  and  _93
REMARK   37  A    between atoms: _92  and  _95
REMARK   38  A    between atoms: _95  and  _96
REMARK   39  A    between atoms: _98  and  _100
REMARK   40  A    between atoms: _100  and  _101
REMARK   41  A    between atoms: _100  and  _103
REMARK   42  A    between atoms: _103  and  _104
REMARK   43  A    between atoms: _106  and  _108
REMARK   44  A    between atoms: _108  and  _109
REMARK   45  A    between atoms: _111  and  _113
REMARK   46  A    between atoms: _113  and  _114
REMARK   47  A    between atoms: _116  and  _118
REMARK   48  A    between atoms: _118  and  _119
REMARK   49  A    between atoms: _121  and  _123
REMARK   50  A    between atoms: _123  and  _124
REMARK   51  A    between atoms: _126  and  _128
REMARK   52  A    between atoms: _128  and  _129
REMARK   53  A    between atoms: _128  and  _131
REMARK   54  A    between atoms: _131  and  _132
REMARK   55  A    between atoms: _135  and  _137
REMARK   56  A    between atoms: _137  and  _138
REMARK   57  A    between atoms: _137  and  _140
REMARK   58  A    between atoms: _140  and  _141
REMARK   59  A    between atoms: _141  and  _142
REMARK   60  A    between atoms: _142  and  _143
REMARK   61  A    between atoms: _152  and  _154
REMARK   62  A    between atoms: _154  and  _155
REMARK   63  A    between atoms: _154  and  _157
REMARK   64  A    between atoms: _157  and  _158
REMARK   65  A    between atoms: _161  and  _163
REMARK   66  A    between atoms: _163  and  _164
REMARK   67  A    between atoms: _167  and  _169
REMARK   68  A    between atoms: _169  and  _170
REMARK   69  A    between atoms: _169  and  _172
REMARK   70  A    between atoms: _172  and  _173
REMARK   71  A    between atoms: _176  and  _178
REMARK   72  A    between atoms: _178  and  _179
REMARK   73  A    between atoms: _178  and  _181
REMARK   74  A    between atoms: _181  and  _182
REMARK   75  A    between atoms: _185  and  _187
REMARK   76  A    between atoms: _187  and  _188
REMARK   77  A    between atoms: _191  and  _193
REMARK   78  A    between atoms: _193  and  _194
REMARK   79  A    between atoms: _193  and  _196
REMARK   80  A    between atoms: _196  and  _197
REMARK   81  A    between atoms: _200  and  _202
REMARK   82  A    between atoms: _202  and  _203
REMARK   83  A    between atoms: _202  and  _205
REMARK   84  A    between atoms: _205  and  _206
REMARK   85  A    between atoms: _209  and  _211
REMARK   86  A    between atoms: _211  and  _212
REMARK   87  A    between atoms: _211  and  _214
REMARK   88  A    between atoms: _214  and  _215
REMARK   89  A    between atoms: _220  and  _221
REMARK   90  A    between atoms: _223  and  _225
REMARK   91  A    between atoms: _225  and  _226
REMARK   92  A    between atoms: _225  and  _228
REMARK   93  A    between atoms: _228  and  _229
REMARK   94  A    between atoms: _234  and  _235
REMARK   95  A    between atoms: _237  and  _239
REMARK   96  A    between atoms: _239  and  _240
REMARK   97  A    between atoms: _239  and  _242
REMARK   98  A    between atoms: _242  and  _243
REMARK   99  A    between atoms: _243  and  _244
REMARK  100  A    between atoms: _249  and  _251
REMARK  101  A    between atoms: _251  and  _252
REMARK  102  A    between atoms: _251  and  _254
REMARK  103  A    between atoms: _254  and  _255
REMARK  104  A    between atoms: _255  and  _256
REMARK  105  A    between atoms: _256  and  _257
REMARK  106  A    between atoms: _266  and  _268
REMARK  107  A    between atoms: _268  and  _269
REMARK  108  A    between atoms: _268  and  _271
REMARK  109  A    between atoms: _271  and  _272
REMARK  110  A    between atoms: _277  and  _278
REMARK  111  A    between atoms: _280  and  _282
REMARK  112  A    between atoms: _282  and  _283
REMARK  113  A    between atoms: _282  and  _285
REMARK  114  A    between atoms: _285  and  _286
REMARK  115  A    between atoms: _289  and  _291
REMARK  116  A    between atoms: _291  and  _292
REMARK  117  A    between atoms: _291  and  _294
REMARK  118  A    between atoms: _294  and  _295
REMARK  119  A    between atoms: _305  and  _307
REMARK  120  A    between atoms: _307  and  _308
REMARK  121  A    between atoms: _307  and  _310
REMARK  122  A    between atoms: _310  and  _311
REMARK  123  A    between atoms: _314  and  _316
REMARK  124  A    between atoms: _316  and  _317
REMARK  125  A    between atoms: _316  and  _319
REMARK  126  A    between atoms: _319  and  _320
REMARK  127  A    between atoms: _320  and  _321
REMARK  128  A    between atoms: _324  and  _326
REMARK  129  A    between atoms: _326  and  _327
REMARK  130  A    between atoms: _326  and  _329
REMARK  131  A    between atoms: _329  and  _330
REMARK  132  A    between atoms: _332  and  _334
REMARK  133  A    between atoms: _334  and  _335
REMARK  134  A    between atoms: _334  and  _337
REMARK  135  A    between atoms: _337  and  _338
REMARK  136  A    between atoms: _341  and  _343
REMARK  137  A    between atoms: _343  and  _344
REMARK  138  A    between atoms: _346  and  _348
REMARK  139  A    between atoms: _348  and  _349
REMARK  140  A    between atoms: _348  and  _351
REMARK  141  A    between atoms: _351  and  _352
REMARK  142  A    between atoms: _362  and  _364
REMARK  143  A    between atoms: _364  and  _365
REMARK  144  A    between atoms: _364  and  _367
REMARK  145  A    between atoms: _367  and  _368
REMARK  146  A    between atoms: _368  and  _369
REMARK  147  A    between atoms: _369  and  _370
REMARK  148  A    between atoms: _379  and  _381
REMARK  149  A    between atoms: _381  and  _382
REMARK  150  A    between atoms: _381  and  _384
REMARK  151  A    between atoms: _384  and  _385
REMARK  152  A    between atoms: _385  and  _386
REMARK  153  A    between atoms: _386  and  _387
REMARK  154  A    between atoms: _387  and  _388
REMARK  155  A    between atoms: _392  and  _394
REMARK  156  A    between atoms: _394  and  _395
REMARK  157  A    between atoms: _394  and  _397
REMARK  158  A    between atoms: _397  and  _398
REMARK  159  A    between atoms: _398  and  _399
REMARK  160  A    between atoms: _404  and  _406
REMARK  161  A    between atoms: _406  and  _407
REMARK  162  A    between atoms: _406  and  _409
REMARK  163  A    between atoms: _409  and  _410
REMARK                            x       y       z     vdW  Elec       q    Type
REMARK                         _______ _______ _______ _____ _____    ______ ____
ROOT
ATOM      1  O   HOH     1      11.796  14.293  19.342  0.00  0.00    +0.000 OA
ENDROOT
TORSDOF 0
REMARK  Name = ../refined-set-2016/3ujc/3ujc_pocket.pdb
REMARK  163 active torsions:
REMARK  status: ('A' for Active; 'I' for Inactive)
REMARK    1  A    between atoms: _1  and  _3
REMARK    2  A    between atoms: _3  and  _4
REMARK    3  A    between atoms: _3  and  _6
REMARK    4  A    between atoms: _6  and  _7
REMARK    5  A    between atoms: _7  and  _8
REMARK    6  A    between atoms: _13  and  _15
REMARK    7  A    between atoms: _15  and  _16
REMARK    8  A    between atoms: _15  and  _18
REMARK    9  A    between atoms: _18  and  _19
REMARK   10  A    between atoms: _24  and  _25
REMARK   11  A    between atoms: _27  and  _29
REMARK   12  A    between atoms: _29  and  _30
REMARK   13  A    between atoms: _32  and  _34
REMARK   14  A    between atoms: _34  and  _35
REMARK   15  A    between atoms: _34  and  _37
REMARK   16  A    between atoms: _37  and  _38
REMARK   17  A    between atoms: _43  and  _44
REMARK   18  A    between atoms: _46  and  _48
REMARK   19  A    between atoms: _48  and  _49
REMARK   20  A    between atoms: _48  and  _51
REMARK   21  A    between atoms: _51  and  _52
REMARK   22  A    between atoms: _55  and  _57
REMARK   23  A    between atoms: _57  and  _58
REMARK   24  A    between atoms: _57  and  _60
REMARK   25  A    between atoms: _60  and  _61
REMARK   26  A    between atoms: _67  and  _69
REMARK   27  A    between atoms: _69  and  _70
REMARK   28  A    between atoms: _69  and  _72
REMARK   29  A    between atoms: _72  and  _73
REMARK   30  A    between atoms: _78  and  _79
REMARK   31  A    between atoms: _81  and  _83
REMARK   32  A    between atoms: _83  and  _84
REMARK   33  A    between atoms: _83  and  _86
REMARK   34  A    between atoms: _86  and  _87
REMARK   35  A    between atoms: _90  and  _92
REMARK   36  A    between atoms: _92  and  _93
REMARK   37  A    between atoms: _92  and  _95
REMARK   38  A    between atoms: _95  and  _96
REMARK   39  A    between atoms: _98  and  _100
REMARK   40  A    between atoms: _100  and  _101
REMARK   41  A    between atoms: _100  and  _103
REMARK   42  A    between atoms: _103  and  _104
REMARK   43  A    between atoms: _106  and  _108
REMARK   44  A    between atoms: _108  and  _109
REMARK   45  A    between atoms: _111  and  _113
REMARK   46  A    between atoms: _113  and  _114
REMARK   47  A    between atoms: _116  and  _118
REMARK   48  A    between atoms: _118  and  _119
REMARK   49  A    between atoms: _121  and  _123
REMARK   50  A    between atoms: _123  and  _124
REMARK   51  A    between atoms: _126  and  _128
REMARK   52  A    between atoms: _128  and  _129
REMARK   53  A    between atoms: _128  and  _131
REMARK   54  A    between atoms: _131  and  _132
REMARK   55  A    between atoms: _135  and  _137
REMARK   56  A    between atoms: _137  and  _138
REMARK   57  A    between atoms: _137  and  _140
REMARK   58  A    between atoms: _140  and  _141
REMARK   59  A    between atoms: _141  and  _142
REMARK   60  A    between atoms: _142  and  _143
REMARK   61  A    between atoms: _152  and  _154
REMARK   62  A    between atoms: _154  and  _155
REMARK   63  A    between atoms: _154  and  _157
REMARK   64  A    between atoms: _157  and  _158
REMARK   65  A    between atoms: _161  and  _163
REMARK   66  A    between atoms: _163  and  _164
REMARK   67  A    between atoms: _167  and  _169
REMARK   68  A    between atoms: _169  and  _170
REMARK   69  A    between atoms: _169  and  _172
REMARK   70  A    between atoms: _172  and  _173
REMARK   71  A    between atoms: _176  and  _178
REMARK   72  A    between atoms: _178  and  _179
REMARK   73  A    between atoms: _178  and  _181
REMARK   74  A    between atoms: _181  and  _182
REMARK   75  A    between atoms: _185  and  _187
REMARK   76  A    between atoms: _187  and  _188
REMARK   77  A    between atoms: _191  and  _193
REMARK   78  A    between atoms: _193  and  _194
REMARK   79  A    between atoms: _193  and  _196
REMARK   80  A    between atoms: _196  and  _197
REMARK   81  A    between atoms: _200  and  _202
REMARK   82  A    between atoms: _202  and  _203
REMARK   83  A    between atoms: _202  and  _205
REMARK   84  A    between atoms: _205  and  _206
REMARK   85  A    between atoms: _209  and  _211
REMARK   86  A    between atoms: _211  and  _212
REMARK   87  A    between atoms: _211  and  _214
REMARK   88  A    between atoms: _214  and  _215
REMARK   89  A    between atoms: _220  and  _221
REMARK   90  A    between atoms: _223  and  _225
REMARK   91  A    between atoms: _225  and  _226
REMARK   92  A    between atoms: _225  and  _228
REMARK   93  A    between atoms: _228  and  _229
REMARK   94  A    between atoms: _234  and  _235
REMARK   95  A    between atoms: _237  and  _239
REMARK   96  A    between atoms: _239  and  _240
REMARK   97  A    between atoms: _239  and  _242
REMARK   98  A    between atoms: _242  and  _243
REMARK   99  A    between atoms: _243  and  _244
REMARK  100  A    between atoms: _249  and  _251
REMARK  101  A    between atoms: _251  and  _252
REMARK  102  A    between atoms: _251  and  _254
REMARK  103  A    between atoms: _254  and  _255
REMARK  104  A    between atoms: _255  and  _256
REMARK  105  A    between atoms: _256  and  _257
REMARK  106  A    between atoms: _266  and  _268
REMARK  107  A    between atoms: _268  and  _269
REMARK  108  A    between atoms: _268  and  _271
REMARK  109  A    between atoms: _271  and  _272
REMARK  110  A    between atoms: _277  and  _278
REMARK  111  A    between atoms: _280  and  _282
REMARK  112  A    between atoms: _282  and  _283
REMARK  113  A    between atoms: _282  and  _285
REMARK  114  A    between atoms: _285  and  _286
REMARK  115  A    between atoms: _289  and  _291
REMARK  116  A    between atoms: _291  and  _292
REMARK  117  A    between atoms: _291  and  _294
REMARK  118  A    between atoms: _294  and  _295
REMARK  119  A    between atoms: _305  and  _307
REMARK  120  A    between atoms: _307  and  _308
REMARK  121  A    between atoms: _307  and  _310
REMARK  122  A    between atoms: _310  and  _311
REMARK  123  A    between atoms: _314  and  _316
REMARK  124  A    between atoms: _316  and  _317
REMARK  125  A    between atoms: _316  and  _319
REMARK  126  A    between atoms: _319  and  _320
REMARK  127  A    between atoms: _320  and  _321
REMARK  128  A    between atoms: _324  and  _326
REMARK  129  A    between atoms: _326  and  _327
REMARK  130  A    between atoms: _326  and  _329
REMARK  131  A    between atoms: _329  and  _330
REMARK  132  A    between atoms: _332  and  _334
REMARK  133  A    between atoms: _334  and  _335
REMARK  134  A    between atoms: _334  and  _337
REMARK  135  A    between atoms: _337  and  _338
REMARK  136  A    between atoms: _341  and  _343
REMARK  137  A    between atoms: _343  and  _344
REMARK  138  A    between atoms: _346  and  _348
REMARK  139  A    between atoms: _348  and  _349
REMARK  140  A    between atoms: _348  and  _351
REMARK  141  A    between atoms: _351  and  _352
REMARK  142  A    between atoms: _362  and  _364
REMARK  143  A    between atoms: _364  and  _365
REMARK  144  A    between atoms: _364  and  _367
REMARK  145  A    between atoms: _367  and  _368
REMARK  146  A    between atoms: _368  and  _369
REMARK  147  A    between atoms: _369  and  _370
REMARK  148  A    between atoms: _379  and  _381
REMARK  149  A    between atoms: _381  and  _382
REMARK  150  A    between atoms: _381  and  _384
REMARK  151  A    between atoms: _384  and  _385
REMARK  152  A    between atoms: _385  and  _386
REMARK  153  A    between atoms: _386  and  _387
REMARK  154  A    between atoms: _387  and  _388
REMARK  155  A    between atoms: _392  and  _394
REMARK  156  A    between atoms: _394  and  _395
REMARK  157  A    between atoms: _394  and  _397
REMARK  158  A    between atoms: _397  and  _398
REMARK  159  A    between atoms: _398  and  _399
REMARK  160  A    between atoms: _404  and  _406
REMARK  161  A    between atoms: _406  and  _407
REMARK  162  A    between atoms: _406  and  _409
REMARK  163  A    between atoms: _409  and  _410
REMARK                            x       y       z     vdW  Elec       q    Type
REMARK                         _______ _______ _______ _____ _____    ______ ____
ROOT
ATOM      1  O   HOH     1      24.090   9.766  23.431  0.00  0.00    +0.000 OA
ENDROOT
TORSDOF 0
REMARK  Name = ../refined-set-2016/3ujc/3ujc_pocket.pdb
REMARK  163 active torsions:
REMARK  status: ('A' for Active; 'I' for Inactive)
REMARK    1  A    between atoms: _1  and  _3
REMARK    2  A    between atoms: _3  and  _4
REMARK    3  A    between atoms: _3  and  _6
REMARK    4  A    between atoms: _6  and  _7
REMARK    5  A    between atoms: _7  and  _8
REMARK    6  A    between atoms: _13  and  _15
REMARK    7  A    between atoms: _15  and  _16
REMARK    8  A    between atoms: _15  and  _18
REMARK    9  A    between atoms: _18  and  _19
REMARK   10  A    between atoms: _24  and  _25
REMARK   11  A    between atoms: _27  and  _29
REMARK   12  A    between atoms: _29  and  _30
REMARK   13  A    between atoms: _32  and  _34
REMARK   14  A    between atoms: _34  and  _35
REMARK   15  A    between atoms: _34  and  _37
REMARK   16  A    between atoms: _37  and  _38
REMARK   17  A    between atoms: _43  and  _44
REMARK   18  A    between atoms: _46  and  _48
REMARK   19  A    between atoms: _48  and  _49
REMARK   20  A    between atoms: _48  and  _51
REMARK   21  A    between atoms: _51  and  _52
REMARK   22  A    between atoms: _55  and  _57
REMARK   23  A    between atoms: _57  and  _58
REMARK   24  A    between atoms: _57  and  _60
REMARK   25  A    between atoms: _60  and  _61
REMARK   26  A    between atoms: _67  and  _69
REMARK   27  A    between atoms: _69  and  _70
REMARK   28  A    between atoms: _69  and  _72
REMARK   29  A    between atoms: _72  and  _73
REMARK   30  A    between atoms: _78  and  _79
REMARK   31  A    between atoms: _81  and  _83
REMARK   32  A    between atoms: _83  and  _84
REMARK   33  A    between atoms: _83  and  _86
REMARK   34  A    between atoms: _86  and  _87
REMARK   35  A    between atoms: _90  and  _92
REMARK   36  A    between atoms: _92  and  _93
REMARK   37  A    between atoms: _92  and  _95
REMARK   38  A    between atoms: _95  and  _96
REMARK   39  A    between atoms: _98  and  _100
REMARK   40  A    between atoms: _100  and  _101
REMARK   41  A    between atoms: _100  and  _103
REMARK   42  A    between atoms: _103  and  _104
REMARK   43  A    between atoms: _106  and  _108
REMARK   44  A    between atoms: _108  and  _109
REMARK   45  A    between atoms: _111  and  _113
REMARK   46  A    between atoms: _113  and  _114
REMARK   47  A    between atoms: _116  and  _118
REMARK   48  A    between atoms: _118  and  _119
REMARK   49  A    between atoms: _121  and  _123
REMARK   50  A    between atoms: _123  and  _124
REMARK   51  A    between atoms: _126  and  _128
REMARK   52  A    between atoms: _128  and  _129
REMARK   53  A    between atoms: _128  and  _131
REMARK   54  A    between atoms: _131  and  _132
REMARK   55  A    between atoms: _135  and  _137
REMARK   56  A    between atoms: _137  and  _138
REMARK   57  A    between atoms: _137  and  _140
REMARK   58  A    between atoms: _140  and  _141
REMARK   59  A    between atoms: _141  and  _142
REMARK   60  A    between atoms: _142  and  _143
REMARK   61  A    between atoms: _152  and  _154
REMARK   62  A    between atoms: _154  and  _155
REMARK   63  A    between atoms: _154  and  _157
REMARK   64  A    between atoms: _157  and  _158
REMARK   65  A    between atoms: _161  and  _163
REMARK   66  A    between atoms: _163  and  _164
REMARK   67  A    between atoms: _167  and  _169
REMARK   68  A    between atoms: _169  and  _170
REMARK   69  A    between atoms: _169  and  _172
REMARK   70  A    between atoms: _172  and  _173
REMARK   71  A    between atoms: _176  and  _178
REMARK   72  A    between atoms: _178  and  _179
REMARK   73  A    between atoms: _178  and  _181
REMARK   74  A    between atoms: _181  and  _182
REMARK   75  A    between atoms: _185  and  _187
REMARK   76  A    between atoms: _187  and  _188
REMARK   77  A    between atoms: _191  and  _193
REMARK   78  A    between atoms: _193  and  _194
REMARK   79  A    between atoms: _193  and  _196
REMARK   80  A    between atoms: _196  and  _197
REMARK   81  A    between atoms: _200  and  _202
REMARK   82  A    between atoms: _202  and  _203
REMARK   83  A    between atoms: _202  and  _205
REMARK   84  A    between atoms: _205  and  _206
REMARK   85  A    between atoms: _209  and  _211
REMARK   86  A    between atoms: _211  and  _212
REMARK   87  A    between atoms: _211  and  _214
REMARK   88  A    between atoms: _214  and  _215
REMARK   89  A    between atoms: _220  and  _221
REMARK   90  A    between atoms: _223  and  _225
REMARK   91  A    between atoms: _225  and  _226
REMARK   92  A    between atoms: _225  and  _228
REMARK   93  A    between atoms: _228  and  _229
REMARK   94  A    between atoms: _234  and  _235
REMARK   95  A    between atoms: _237  and  _239
REMARK   96  A    between atoms: _239  and  _240
REMARK   97  A    between atoms: _239  and  _242
REMARK   98  A    between atoms: _242  and  _243
REMARK   99  A    between atoms: _243  and  _244
REMARK  100  A    between atoms: _249  and  _251
REMARK  101  A    between atoms: _251  and  _252
REMARK  102  A    between atoms: _251  and  _254
REMARK  103  A    between atoms: _254  and  _255
REMARK  104  A    between atoms: _255  and  _256
REMARK  105  A    between atoms: _256  and  _257
REMARK  106  A    between atoms: _266  and  _268
REMARK  107  A    between atoms: _268  and  _269
REMARK  108  A    between atoms: _268  and  _271
REMARK  109  A    between atoms: _271  and  _272
REMARK  110  A    between atoms: _277  and  _278
REMARK  111  A    between atoms: _280  and  _282
REMARK  112  A    between atoms: _282  and  _283
REMARK  113  A    between atoms: _282  and  _285
REMARK  114  A    between atoms: _285  and  _286
REMARK  115  A    between atoms: _289  and  _291
REMARK  116  A    between atoms: _291  and  _292
REMARK  117  A    between atoms: _291  and  _294
REMARK  118  A    between atoms: _294  and  _295
REMARK  119  A    between atoms: _305  and  _307
REMARK  120  A    between atoms: _307  and  _308
REMARK  121  A    between atoms: _307  and  _310
REMARK  122  A    between atoms: _310  and  _311
REMARK  123  A    between atoms: _314  and  _316
REMARK  124  A    between atoms: _316  and  _317
REMARK  125  A    between atoms: _316  and  _319
REMARK  126  A    between atoms: _319  and  _320
REMARK  127  A    between atoms: _320  and  _321
REMARK  128  A    between atoms: _324  and  _326
REMARK  129  A    between atoms: _326  and  _327
REMARK  130  A    between atoms: _326  and  _329
REMARK  131  A    between atoms: _329  and  _330
REMARK  132  A    between atoms: _332  and  _334
REMARK  133  A    between atoms: _334  and  _335
REMARK  134  A    between atoms: _334  and  _337
REMARK  135  A    between atoms: _337  and  _338
REMARK  136  A    between atoms: _341  and  _343
REMARK  137  A    between atoms: _343  and  _344
REMARK  138  A    between atoms: _346  and  _348
REMARK  139  A    between atoms: _348  and  _349
REMARK  140  A    between atoms: _348  and  _351
REMARK  141  A    between atoms: _351  and  _352
REMARK  142  A    between atoms: _362  and  _364
REMARK  143  A    between atoms: _364  and  _365
REMARK  144  A    between atoms: _364  and  _367
REMARK  145  A    between atoms: _367  and  _368
REMARK  146  A    between atoms: _368  and  _369
REMARK  147  A    between atoms: _369  and  _370
REMARK  148  A    between atoms: _379  and  _381
REMARK  149  A    between atoms: _381  and  _382
REMARK  150  A    between atoms: _381  and  _384
REMARK  151  A    between atoms: _384  and  _385
REMARK  152  A    between atoms: _385  and  _386
REMARK  153  A    between atoms: _386  and  _387
REMARK  154  A    between atoms: _387  and  _388
REMARK  155  A    between atoms: _392  and  _394
REMARK  156  A    between atoms: _394  and  _395
REMARK  157  A    between atoms: _394  and  _397
REMARK  158  A    between atoms: _397  and  _398
REMARK  159  A    between atoms: _398  and  _399
REMARK  160  A    between atoms: _404  and  _406
REMARK  161  A    between atoms: _406  and  _407
REMARK  162  A    between atoms: _406  and  _409
REMARK  163  A    between atoms: _409  and  _410
REMARK                            x       y       z     vdW  Elec       q    Type
REMARK                         _______ _______ _______ _____ _____    ______ ____
ROOT
ATOM      1  O   HOH     1      22.722   6.952  20.892  0.00  0.00    +0.000 OA
ENDROOT
TORSDOF 0
REMARK  Name = ../refined-set-2016/3ujc/3ujc_pocket.pdb
REMARK  163 active torsions:
REMARK  status: ('A' for Active; 'I' for Inactive)
REMARK    1  A    between atoms: _1  and  _3
REMARK    2  A    between atoms: _3  and  _4
REMARK    3  A    between atoms: _3  and  _6
REMARK    4  A    between atoms: _6  and  _7
REMARK    5  A    between atoms: _7  and  _8
REMARK    6  A    between atoms: _13  and  _15
REMARK    7  A    between atoms: _15  and  _16
REMARK    8  A    between atoms: _15  and  _18
REMARK    9  A    between atoms: _18  and  _19
REMARK   10  A    between atoms: _24  and  _25
REMARK   11  A    between atoms: _27  and  _29
REMARK   12  A    between atoms: _29  and  _30
REMARK   13  A    between atoms: _32  and  _34
REMARK   14  A    between atoms: _34  and  _35
REMARK   15  A    between atoms: _34  and  _37
REMARK   16  A    between atoms: _37  and  _38
REMARK   17  A    between atoms: _43  and  _44
REMARK   18  A    between atoms: _46  and  _48
REMARK   19  A    between atoms: _48  and  _49
REMARK   20  A    between atoms: _48  and  _51
REMARK   21  A    between atoms: _51  and  _52
REMARK   22  A    between atoms: _55  and  _57
REMARK   23  A    between atoms: _57  and  _58
REMARK   24  A    between atoms: _57  and  _60
REMARK   25  A    between atoms: _60  and  _61
REMARK   26  A    between atoms: _67  and  _69
REMARK   27  A    between atoms: _69  and  _70
REMARK   28  A    between atoms: _69  and  _72
REMARK   29  A    between atoms: _72  and  _73
REMARK   30  A    between atoms: _78  and  _79
REMARK   31  A    between atoms: _81  and  _83
REMARK   32  A    between atoms: _83  and  _84
REMARK   33  A    between atoms: _83  and  _86
REMARK   34  A    between atoms: _86  and  _87
REMARK   35  A    between atoms: _90  and  _92
REMARK   36  A    between atoms: _92  and  _93
REMARK   37  A    between atoms: _92  and  _95
REMARK   38  A    between atoms: _95  and  _96
REMARK   39  A    between atoms: _98  and  _100
REMARK   40  A    between atoms: _100  and  _101
REMARK   41  A    between atoms: _100  and  _103
REMARK   42  A    between atoms: _103  and  _104
REMARK   43  A    between atoms: _106  and  _108
REMARK   44  A    between atoms: _108  and  _109
REMARK   45  A    between atoms: _111  and  _113
REMARK   46  A    between atoms: _113  and  _114
REMARK   47  A    between atoms: _116  and  _118
REMARK   48  A    between atoms: _118  and  _119
REMARK   49  A    between atoms: _121  and  _123
REMARK   50  A    between atoms: _123  and  _124
REMARK   51  A    between atoms: _126  and  _128
REMARK   52  A    between atoms: _128  and  _129
REMARK   53  A    between atoms: _128  and  _131
REMARK   54  A    between atoms: _131  and  _132
REMARK   55  A    between atoms: _135  and  _137
REMARK   56  A    between atoms: _137  and  _138
REMARK   57  A    between atoms: _137  and  _140
REMARK   58  A    between atoms: _140  and  _141
REMARK   59  A    between atoms: _141  and  _142
REMARK   60  A    between atoms: _142  and  _143
REMARK   61  A    between atoms: _152  and  _154
REMARK   62  A    between atoms: _154  and  _155
REMARK   63  A    between atoms: _154  and  _157
REMARK   64  A    between atoms: _157  and  _158
REMARK   65  A    between atoms: _161  and  _163
REMARK   66  A    between atoms: _163  and  _164
REMARK   67  A    between atoms: _167  and  _169
REMARK   68  A    between atoms: _169  and  _170
REMARK   69  A    between atoms: _169  and  _172
REMARK   70  A    between atoms: _172  and  _173
REMARK   71  A    between atoms: _176  and  _178
REMARK   72  A    between atoms: _178  and  _179
REMARK   73  A    between atoms: _178  and  _181
REMARK   74  A    between atoms: _181  and  _182
REMARK   75  A    between atoms: _185  and  _187
REMARK   76  A    between atoms: _187  and  _188
REMARK   77  A    between atoms: _191  and  _193
REMARK   78  A    between atoms: _193  and  _194
REMARK   79  A    between atoms: _193  and  _196
REMARK   80  A    between atoms: _196  and  _197
REMARK   81  A    between atoms: _200  and  _202
REMARK   82  A    between atoms: _202  and  _203
REMARK   83  A    between atoms: _202  and  _205
REMARK   84  A    between atoms: _205  and  _206
REMARK   85  A    between atoms: _209  and  _211
REMARK   86  A    between atoms: _211  and  _212
REMARK   87  A    between atoms: _211  and  _214
REMARK   88  A    between atoms: _214  and  _215
REMARK   89  A    between atoms: _220  and  _221
REMARK   90  A    between atoms: _223  and  _225
REMARK   91  A    between atoms: _225  and  _226
REMARK   92  A    between atoms: _225  and  _228
REMARK   93  A    between atoms: _228  and  _229
REMARK   94  A    between atoms: _234  and  _235
REMARK   95  A    between atoms: _237  and  _239
REMARK   96  A    between atoms: _239  and  _240
REMARK   97  A    between atoms: _239  and  _242
REMARK   98  A    between atoms: _242  and  _243
REMARK   99  A    between atoms: _243  and  _244
REMARK  100  A    between atoms: _249  and  _251
REMARK  101  A    between atoms: _251  and  _252
REMARK  102  A    between atoms: _251  and  _254
REMARK  103  A    between atoms: _254  and  _255
REMARK  104  A    between atoms: _255  and  _256
REMARK  105  A    between atoms: _256  and  _257
REMARK  106  A    between atoms: _266  and  _268
REMARK  107  A    between atoms: _268  and  _269
REMARK  108  A    between atoms: _268  and  _271
REMARK  109  A    between atoms: _271  and  _272
REMARK  110  A    between atoms: _277  and  _278
REMARK  111  A    between atoms: _280  and  _282
REMARK  112  A    between atoms: _282  and  _283
REMARK  113  A    between atoms: _282  and  _285
REMARK  114  A    between atoms: _285  and  _286
REMARK  115  A    between atoms: _289  and  _291
REMARK  116  A    between atoms: _291  and  _292
REMARK  117  A    between atoms: _291  and  _294
REMARK  118  A    between atoms: _294  and  _295
REMARK  119  A    between atoms: _305  and  _307
REMARK  120  A    between atoms: _307  and  _308
REMARK  121  A    between atoms: _307  and  _310
REMARK  122  A    between atoms: _310  and  _311
REMARK  123  A    between atoms: _314  and  _316
REMARK  124  A    between atoms: _316  and  _317
REMARK  125  A    between atoms: _316  and  _319
REMARK  126  A    between atoms: _319  and  _320
REMARK  127  A    between atoms: _320  and  _321
REMARK  128  A    between atoms: _324  and  _326
REMARK  129  A    between atoms: _326  and  _327
REMARK  130  A    between atoms: _326  and  _329
REMARK  131  A    between atoms: _329  and  _330
REMARK  132  A    between atoms: _332  and  _334
REMARK  133  A    between atoms: _334  and  _335
REMARK  134  A    between atoms: _334  and  _337
REMARK  135  A    between atoms: _337  and  _338
REMARK  136  A    between atoms: _341  and  _343
REMARK  137  A    between atoms: _343  and  _344
REMARK  138  A    between atoms: _346  and  _348
REMARK  139  A    between atoms: _348  and  _349
REMARK  140  A    between atoms: _348  and  _351
REMARK  141  A    between atoms: _351  and  _352
REMARK  142  A    between atoms: _362  and  _364
REMARK  143  A    between atoms: _364  and  _365
REMARK  144  A    between atoms: _364  and  _367
REMARK  145  A    between atoms: _367  and  _368
REMARK  146  A    between atoms: _368  and  _369
REMARK  147  A    between atoms: _369  and  _370
REMARK  148  A    between atoms: _379  and  _381
REMARK  149  A    between atoms: _381  and  _382
REMARK  150  A    between atoms: _381  and  _384
REMARK  151  A    between atoms: _384  and  _385
REMARK  152  A    between atoms: _385  and  _386
REMARK  153  A    between atoms: _386  and  _387
REMARK  154  A    between atoms: _387  and  _388
REMARK  155  A    between atoms: _392  and  _394
REMARK  156  A    between atoms: _394  and  _395
REMARK  157  A    between atoms: _394  and  _397
REMARK  158  A    between atoms: _397  and  _398
REMARK  159  A    between atoms: _398  and  _399
REMARK  160  A    between atoms: _404  and  _406
REMARK  161  A    between atoms: _406  and  _407
REMARK  162  A    between atoms: _406  and  _409
REMARK  163  A    between atoms: _409  and  _410
REMARK                            x       y       z     vdW  Elec       q    Type
REMARK                         _______ _______ _______ _____ _____    ______ ____
ROOT
ATOM      1  O   HOH     1      12.617   8.283  19.166  0.00  0.00    +0.000 OA
ENDROOT
TORSDOF 0
REMARK  Name = ../refined-set-2016/3ujc/3ujc_pocket.pdb
REMARK  163 active torsions:
REMARK  status: ('A' for Active; 'I' for Inactive)
REMARK    1  A    between atoms: _1  and  _3
REMARK    2  A    between atoms: _3  and  _4
REMARK    3  A    between atoms: _3  and  _6
REMARK    4  A    between atoms: _6  and  _7
REMARK    5  A    between atoms: _7  and  _8
REMARK    6  A    between atoms: _13  and  _15
REMARK    7  A    between atoms: _15  and  _16
REMARK    8  A    between atoms: _15  and  _18
REMARK    9  A    between atoms: _18  and  _19
REMARK   10  A    between atoms: _24  and  _25
REMARK   11  A    between atoms: _27  and  _29
REMARK   12  A    between atoms: _29  and  _30
REMARK   13  A    between atoms: _32  and  _34
REMARK   14  A    between atoms: _34  and  _35
REMARK   15  A    between atoms: _34  and  _37
REMARK   16  A    between atoms: _37  and  _38
REMARK   17  A    between atoms: _43  and  _44
REMARK   18  A    between atoms: _46  and  _48
REMARK   19  A    between atoms: _48  and  _49
REMARK   20  A    between atoms: _48  and  _51
REMARK   21  A    between atoms: _51  and  _52
REMARK   22  A    between atoms: _55  and  _57
REMARK   23  A    between atoms: _57  and  _58
REMARK   24  A    between atoms: _57  and  _60
REMARK   25  A    between atoms: _60  and  _61
REMARK   26  A    between atoms: _67  and  _69
REMARK   27  A    between atoms: _69  and  _70
REMARK   28  A    between atoms: _69  and  _72
REMARK   29  A    between atoms: _72  and  _73
REMARK   30  A    between atoms: _78  and  _79
REMARK   31  A    between atoms: _81  and  _83
REMARK   32  A    between atoms: _83  and  _84
REMARK   33  A    between atoms: _83  and  _86
REMARK   34  A    between atoms: _86  and  _87
REMARK   35  A    between atoms: _90  and  _92
REMARK   36  A    between atoms: _92  and  _93
REMARK   37  A    between atoms: _92  and  _95
REMARK   38  A    between atoms: _95  and  _96
REMARK   39  A    between atoms: _98  and  _100
REMARK   40  A    between atoms: _100  and  _101
REMARK   41  A    between atoms: _100  and  _103
REMARK   42  A    between atoms: _103  and  _104
REMARK   43  A    between atoms: _106  and  _108
REMARK   44  A    between atoms: _108  and  _109
REMARK   45  A    between atoms: _111  and  _113
REMARK   46  A    between atoms: _113  and  _114
REMARK   47  A    between atoms: _116  and  _118
REMARK   48  A    between atoms: _118  and  _119
REMARK   49  A    between atoms: _121  and  _123
REMARK   50  A    between atoms: _123  and  _124
REMARK   51  A    between atoms: _126  and  _128
REMARK   52  A    between atoms: _128  and  _129
REMARK   53  A    between atoms: _128  and  _131
REMARK   54  A    between atoms: _131  and  _132
REMARK   55  A    between atoms: _135  and  _137
REMARK   56  A    between atoms: _137  and  _138
REMARK   57  A    between atoms: _137  and  _140
REMARK   58  A    between atoms: _140  and  _141
REMARK   59  A    between atoms: _141  and  _142
REMARK   60  A    between atoms: _142  and  _143
REMARK   61  A    between atoms: _152  and  _154
REMARK   62  A    between atoms: _154  and  _155
REMARK   63  A    between atoms: _154  and  _157
REMARK   64  A    between atoms: _157  and  _158
REMARK   65  A    between atoms: _161  and  _163
REMARK   66  A    between atoms: _163  and  _164
REMARK   67  A    between atoms: _167  and  _169
REMARK   68  A    between atoms: _169  and  _170
REMARK   69  A    between atoms: _169  and  _172
REMARK   70  A    between atoms: _172  and  _173
REMARK   71  A    between atoms: _176  and  _178
REMARK   72  A    between atoms: _178  and  _179
REMARK   73  A    between atoms: _178  and  _181
REMARK   74  A    between atoms: _181  and  _182
REMARK   75  A    between atoms: _185  and  _187
REMARK   76  A    between atoms: _187  and  _188
REMARK   77  A    between atoms: _191  and  _193
REMARK   78  A    between atoms: _193  and  _194
REMARK   79  A    between atoms: _193  and  _196
REMARK   80  A    between atoms: _196  and  _197
REMARK   81  A    between atoms: _200  and  _202
REMARK   82  A    between atoms: _202  and  _203
REMARK   83  A    between atoms: _202  and  _205
REMARK   84  A    between atoms: _205  and  _206
REMARK   85  A    between atoms: _209  and  _211
REMARK   86  A    between atoms: _211  and  _212
REMARK   87  A    between atoms: _211  and  _214
REMARK   88  A    between atoms: _214  and  _215
REMARK   89  A    between atoms: _220  and  _221
REMARK   90  A    between atoms: _223  and  _225
REMARK   91  A    between atoms: _225  and  _226
REMARK   92  A    between atoms: _225  and  _228
REMARK   93  A    between atoms: _228  and  _229
REMARK   94  A    between atoms: _234  and  _235
REMARK   95  A    between atoms: _237  and  _239
REMARK   96  A    between atoms: _239  and  _240
REMARK   97  A    between atoms: _239  and  _242
REMARK   98  A    between atoms: _242  and  _243
REMARK   99  A    between atoms: _243  and  _244
REMARK  100  A    between atoms: _249  and  _251
REMARK  101  A    between atoms: _251  and  _252
REMARK  102  A    between atoms: _251  and  _254
REMARK  103  A    between atoms: _254  and  _255
REMARK  104  A    between atoms: _255  and  _256
REMARK  105  A    between atoms: _256  and  _257
REMARK  106  A    between atoms: _266  and  _268
REMARK  107  A    between atoms: _268  and  _269
REMARK  108  A    between atoms: _268  and  _271
REMARK  109  A    between atoms: _271  and  _272
REMARK  110  A    between atoms: _277  and  _278
REMARK  111  A    between atoms: _280  and  _282
REMARK  112  A    between atoms: _282  and  _283
REMARK  113  A    between atoms: _282  and  _285
REMARK  114  A    between atoms: _285  and  _286
REMARK  115  A    between atoms: _289  and  _291
REMARK  116  A    between atoms: _291  and  _292
REMARK  117  A    between atoms: _291  and  _294
REMARK  118  A    between atoms: _294  and  _295
REMARK  119  A    between atoms: _305  and  _307
REMARK  120  A    between atoms: _307  and  _308
REMARK  121  A    between atoms: _307  and  _310
REMARK  122  A    between atoms: _310  and  _311
REMARK  123  A    between atoms: _314  and  _316
REMARK  124  A    between atoms: _316  and  _317
REMARK  125  A    between atoms: _316  and  _319
REMARK  126  A    between atoms: _319  and  _320
REMARK  127  A    between atoms: _320  and  _321
REMARK  128  A    between atoms: _324  and  _326
REMARK  129  A    between atoms: _326  and  _327
REMARK  130  A    between atoms: _326  and  _329
REMARK  131  A    between atoms: _329  and  _330
REMARK  132  A    between atoms: _332  and  _334
REMARK  133  A    between atoms: _334  and  _335
REMARK  134  A    between atoms: _334  and  _337
REMARK  135  A    between atoms: _337  and  _338
REMARK  136  A    between atoms: _341  and  _343
REMARK  137  A    between atoms: _343  and  _344
REMARK  138  A    between atoms: _346  and  _348
REMARK  139  A    between atoms: _348  and  _349
REMARK  140  A    between atoms: _348  and  _351
REMARK  141  A    between atoms: _351  and  _352
REMARK  142  A    between atoms: _362  and  _364
REMARK  143  A    between atoms: _364  and  _365
REMARK  144  A    between atoms: _364  and  _367
REMARK  145  A    between atoms: _367  and  _368
REMARK  146  A    between atoms: _368  and  _369
REMARK  147  A    between atoms: _369  and  _370
REMARK  148  A    between atoms: _379  and  _381
REMARK  149  A    between atoms: _381  and  _382
REMARK  150  A    between atoms: _381  and  _384
REMARK  151  A    between atoms: _384  and  _385
REMARK  152  A    between atoms: _385  and  _386
REMARK  153  A    between atoms: _386  and  _387
REMARK  154  A    between atoms: _387  and  _388
REMARK  155  A    between atoms: _392  and  _394
REMARK  156  A    between atoms: _394  and  _395
REMARK  157  A    between atoms: _394  and  _397
REMARK  158  A    between atoms: _397  and  _398
REMARK  159  A    between atoms: _398  and  _399
REMARK  160  A    between atoms: _404  and  _406
REMARK  161  A    between atoms: _406  and  _407
REMARK  162  A    between atoms: _406  and  _409
REMARK  163  A    between atoms: _409  and  _410
REMARK                            x       y       z     vdW  Elec       q    Type
REMARK                         _______ _______ _______ _____ _____    ______ ____
ROOT
ATOM      1  O   HOH     1      19.775  19.345  12.524  0.00  0.00    +0.000 OA
ENDROOT
TORSDOF 0
REMARK  Name = ../refined-set-2016/3ujc/3ujc_pocket.pdb
REMARK  163 active torsions:
REMARK  status: ('A' for Active; 'I' for Inactive)
REMARK    1  A    between atoms: _1  and  _3
REMARK    2  A    between atoms: _3  and  _4
REMARK    3  A    between atoms: _3  and  _6
REMARK    4  A    between atoms: _6  and  _7
REMARK    5  A    between atoms: _7  and  _8
REMARK    6  A    between atoms: _13  and  _15
REMARK    7  A    between atoms: _15  and  _16
REMARK    8  A    between atoms: _15  and  _18
REMARK    9  A    between atoms: _18  and  _19
REMARK   10  A    between atoms: _24  and  _25
REMARK   11  A    between atoms: _27  and  _29
REMARK   12  A    between atoms: _29  and  _30
REMARK   13  A    between atoms: _32  and  _34
REMARK   14  A    between atoms: _34  and  _35
REMARK   15  A    between atoms: _34  and  _37
REMARK   16  A    between atoms: _37  and  _38
REMARK   17  A    between atoms: _43  and  _44
REMARK   18  A    between atoms: _46  and  _48
REMARK   19  A    between atoms: _48  and  _49
REMARK   20  A    between atoms: _48  and  _51
REMARK   21  A    between atoms: _51  and  _52
REMARK   22  A    between atoms: _55  and  _57
REMARK   23  A    between atoms: _57  and  _58
REMARK   24  A    between atoms: _57  and  _60
REMARK   25  A    between atoms: _60  and  _61
REMARK   26  A    between atoms: _67  and  _69
REMARK   27  A    between atoms: _69  and  _70
REMARK   28  A    between atoms: _69  and  _72
REMARK   29  A    between atoms: _72  and  _73
REMARK   30  A    between atoms: _78  and  _79
REMARK   31  A    between atoms: _81  and  _83
REMARK   32  A    between atoms: _83  and  _84
REMARK   33  A    between atoms: _83  and  _86
REMARK   34  A    between atoms: _86  and  _87
REMARK   35  A    between atoms: _90  and  _92
REMARK   36  A    between atoms: _92  and  _93
REMARK   37  A    between atoms: _92  and  _95
REMARK   38  A    between atoms: _95  and  _96
REMARK   39  A    between atoms: _98  and  _100
REMARK   40  A    between atoms: _100  and  _101
REMARK   41  A    between atoms: _100  and  _103
REMARK   42  A    between atoms: _103  and  _104
REMARK   43  A    between atoms: _106  and  _108
REMARK   44  A    between atoms: _108  and  _109
REMARK   45  A    between atoms: _111  and  _113
REMARK   46  A    between atoms: _113  and  _114
REMARK   47  A    between atoms: _116  and  _118
REMARK   48  A    between atoms: _118  and  _119
REMARK   49  A    between atoms: _121  and  _123
REMARK   50  A    between atoms: _123  and  _124
REMARK   51  A    between atoms: _126  and  _128
REMARK   52  A    between atoms: _128  and  _129
REMARK   53  A    between atoms: _128  and  _131
REMARK   54  A    between atoms: _131  and  _132
REMARK   55  A    between atoms: _135  and  _137
REMARK   56  A    between atoms: _137  and  _138
REMARK   57  A    between atoms: _137  and  _140
REMARK   58  A    between atoms: _140  and  _141
REMARK   59  A    between atoms: _141  and  _142
REMARK   60  A    between atoms: _142  and  _143
REMARK   61  A    between atoms: _152  and  _154
REMARK   62  A    between atoms: _154  and  _155
REMARK   63  A    between atoms: _154  and  _157
REMARK   64  A    between atoms: _157  and  _158
REMARK   65  A    between atoms: _161  and  _163
REMARK   66  A    between atoms: _163  and  _164
REMARK   67  A    between atoms: _167  and  _169
REMARK   68  A    between atoms: _169  and  _170
REMARK   69  A    between atoms: _169  and  _172
REMARK   70  A    between atoms: _172  and  _173
REMARK   71  A    between atoms: _176  and  _178
REMARK   72  A    between atoms: _178  and  _179
REMARK   73  A    between atoms: _178  and  _181
REMARK   74  A    between atoms: _181  and  _182
REMARK   75  A    between atoms: _185  and  _187
REMARK   76  A    between atoms: _187  and  _188
REMARK   77  A    between atoms: _191  and  _193
REMARK   78  A    between atoms: _193  and  _194
REMARK   79  A    between atoms: _193  and  _196
REMARK   80  A    between atoms: _196  and  _197
REMARK   81  A    between atoms: _200  and  _202
REMARK   82  A    between atoms: _202  and  _203
REMARK   83  A    between atoms: _202  and  _205
REMARK   84  A    between atoms: _205  and  _206
REMARK   85  A    between atoms: _209  and  _211
REMARK   86  A    between atoms: _211  and  _212
REMARK   87  A    between atoms: _211  and  _214
REMARK   88  A    between atoms: _214  and  _215
REMARK   89  A    between atoms: _220  and  _221
REMARK   90  A    between atoms: _223  and  _225
REMARK   91  A    between atoms: _225  and  _226
REMARK   92  A    between atoms: _225  and  _228
REMARK   93  A    between atoms: _228  and  _229
REMARK   94  A    between atoms: _234  and  _235
REMARK   95  A    between atoms: _237  and  _239
REMARK   96  A    between atoms: _239  and  _240
REMARK   97  A    between atoms: _239  and  _242
REMARK   98  A    between atoms: _242  and  _243
REMARK   99  A    between atoms: _243  and  _244
REMARK  100  A    between atoms: _249  and  _251
REMARK  101  A    between atoms: _251  and  _252
REMARK  102  A    between atoms: _251  and  _254
REMARK  103  A    between atoms: _254  and  _255
REMARK  104  A    between atoms: _255  and  _256
REMARK  105  A    between atoms: _256  and  _257
REMARK  106  A    between atoms: _266  and  _268
REMARK  107  A    between atoms: _268  and  _269
REMARK  108  A    between atoms: _268  and  _271
REMARK  109  A    between atoms: _271  and  _272
REMARK  110  A    between atoms: _277  and  _278
REMARK  111  A    between atoms: _280  and  _282
REMARK  112  A    between atoms: _282  and  _283
REMARK  113  A    between atoms: _282  and  _285
REMARK  114  A    between atoms: _285  and  _286
REMARK  115  A    between atoms: _289  and  _291
REMARK  116  A    between atoms: _291  and  _292
REMARK  117  A    between atoms: _291  and  _294
REMARK  118  A    between atoms: _294  and  _295
REMARK  119  A    between atoms: _305  and  _307
REMARK  120  A    between atoms: _307  and  _308
REMARK  121  A    between atoms: _307  and  _310
REMARK  122  A    between atoms: _310  and  _311
REMARK  123  A    between atoms: _314  and  _316
REMARK  124  A    between atoms: _316  and  _317
REMARK  125  A    between atoms: _316  and  _319
REMARK  126  A    between atoms: _319  and  _320
REMARK  127  A    between atoms: _320  and  _321
REMARK  128  A    between atoms: _324  and  _326
REMARK  129  A    between atoms: _326  and  _327
REMARK  130  A    between atoms: _326  and  _329
REMARK  131  A    between atoms: _329  and  _330
REMARK  132  A    between atoms: _332  and  _334
REMARK  133  A    between atoms: _334  and  _335
REMARK  134  A    between atoms: _334  and  _337
REMARK  135  A    between atoms: _337  and  _338
REMARK  136  A    between atoms: _341  and  _343
REMARK  137  A    between atoms: _343  and  _344
REMARK  138  A    between atoms: _346  and  _348
REMARK  139  A    between atoms: _348  and  _349
REMARK  140  A    between atoms: _348  and  _351
REMARK  141  A    between atoms: _351  and  _352
REMARK  142  A    between atoms: _362  and  _364
REMARK  143  A    between atoms: _364  and  _365
REMARK  144  A    between atoms: _364  and  _367
REMARK  145  A    between atoms: _367  and  _368
REMARK  146  A    between atoms: _368  and  _369
REMARK  147  A    between atoms: _369  and  _370
REMARK  148  A    between atoms: _379  and  _381
REMARK  149  A    between atoms: _381  and  _382
REMARK  150  A    between atoms: _381  and  _384
REMARK  151  A    between atoms: _384  and  _385
REMARK  152  A    between atoms: _385  and  _386
REMARK  153  A    between atoms: _386  and  _387
REMARK  154  A    between atoms: _387  and  _388
REMARK  155  A    between atoms: _392  and  _394
REMARK  156  A    between atoms: _394  and  _395
REMARK  157  A    between atoms: _394  and  _397
REMARK  158  A    between atoms: _397  and  _398
REMARK  159  A    between atoms: _398  and  _399
REMARK  160  A    between atoms: _404  and  _406
REMARK  161  A    between atoms: _406  and  _407
REMARK  162  A    between atoms: _406  and  _409
REMARK  163  A    between atoms: _409  and  _410
REMARK                            x       y       z     vdW  Elec       q    Type
REMARK                         _______ _______ _______ _____ _____    ______ ____
ROOT
ATOM      1  O   HOH     1      18.738   6.199  14.563  0.00  0.00    +0.000 OA
ENDROOT
TORSDOF 0
REMARK  Name = ../refined-set-2016/3ujc/3ujc_pocket.pdb
REMARK  163 active torsions:
REMARK  status: ('A' for Active; 'I' for Inactive)
REMARK    1  A    between atoms: _1  and  _3
REMARK    2  A    between atoms: _3  and  _4
REMARK    3  A    between atoms: _3  and  _6
REMARK    4  A    between atoms: _6  and  _7
REMARK    5  A    between atoms: _7  and  _8
REMARK    6  A    between atoms: _13  and  _15
REMARK    7  A    between atoms: _15  and  _16
REMARK    8  A    between atoms: _15  and  _18
REMARK    9  A    between atoms: _18  and  _19
REMARK   10  A    between atoms: _24  and  _25
REMARK   11  A    between atoms: _27  and  _29
REMARK   12  A    between atoms: _29  and  _30
REMARK   13  A    between atoms: _32  and  _34
REMARK   14  A    between atoms: _34  and  _35
REMARK   15  A    between atoms: _34  and  _37
REMARK   16  A    between atoms: _37  and  _38
REMARK   17  A    between atoms: _43  and  _44
REMARK   18  A    between atoms: _46  and  _48
REMARK   19  A    between atoms: _48  and  _49
REMARK   20  A    between atoms: _48  and  _51
REMARK   21  A    between atoms: _51  and  _52
REMARK   22  A    between atoms: _55  and  _57
REMARK   23  A    between atoms: _57  and  _58
REMARK   24  A    between atoms: _57  and  _60
REMARK   25  A    between atoms: _60  and  _61
REMARK   26  A    between atoms: _67  and  _69
REMARK   27  A    between atoms: _69  and  _70
REMARK   28  A    between atoms: _69  and  _72
REMARK   29  A    between atoms: _72  and  _73
REMARK   30  A    between atoms: _78  and  _79
REMARK   31  A    between atoms: _81  and  _83
REMARK   32  A    between atoms: _83  and  _84
REMARK   33  A    between atoms: _83  and  _86
REMARK   34  A    between atoms: _86  and  _87
REMARK   35  A    between atoms: _90  and  _92
REMARK   36  A    between atoms: _92  and  _93
REMARK   37  A    between atoms: _92  and  _95
REMARK   38  A    between atoms: _95  and  _96
REMARK   39  A    between atoms: _98  and  _100
REMARK   40  A    between atoms: _100  and  _101
REMARK   41  A    between atoms: _100  and  _103
REMARK   42  A    between atoms: _103  and  _104
REMARK   43  A    between atoms: _106  and  _108
REMARK   44  A    between atoms: _108  and  _109
REMARK   45  A    between atoms: _111  and  _113
REMARK   46  A    between atoms: _113  and  _114
REMARK   47  A    between atoms: _116  and  _118
REMARK   48  A    between atoms: _118  and  _119
REMARK   49  A    between atoms: _121  and  _123
REMARK   50  A    between atoms: _123  and  _124
REMARK   51  A    between atoms: _126  and  _128
REMARK   52  A    between atoms: _128  and  _129
REMARK   53  A    between atoms: _128  and  _131
REMARK   54  A    between atoms: _131  and  _132
REMARK   55  A    between atoms: _135  and  _137
REMARK   56  A    between atoms: _137  and  _138
REMARK   57  A    between atoms: _137  and  _140
REMARK   58  A    between atoms: _140  and  _141
REMARK   59  A    between atoms: _141  and  _142
REMARK   60  A    between atoms: _142  and  _143
REMARK   61  A    between atoms: _152  and  _154
REMARK   62  A    between atoms: _154  and  _155
REMARK   63  A    between atoms: _154  and  _157
REMARK   64  A    between atoms: _157  and  _158
REMARK   65  A    between atoms: _161  and  _163
REMARK   66  A    between atoms: _163  and  _164
REMARK   67  A    between atoms: _167  and  _169
REMARK   68  A    between atoms: _169  and  _170
REMARK   69  A    between atoms: _169  and  _172
REMARK   70  A    between atoms: _172  and  _173
REMARK   71  A    between atoms: _176  and  _178
REMARK   72  A    between atoms: _178  and  _179
REMARK   73  A    between atoms: _178  and  _181
REMARK   74  A    between atoms: _181  and  _182
REMARK   75  A    between atoms: _185  and  _187
REMARK   76  A    between atoms: _187  and  _188
REMARK   77  A    between atoms: _191  and  _193
REMARK   78  A    between atoms: _193  and  _194
REMARK   79  A    between atoms: _193  and  _196
REMARK   80  A    between atoms: _196  and  _197
REMARK   81  A    between atoms: _200  and  _202
REMARK   82  A    between atoms: _202  and  _203
REMARK   83  A    between atoms: _202  and  _205
REMARK   84  A    between atoms: _205  and  _206
REMARK   85  A    between atoms: _209  and  _211
REMARK   86  A    between atoms: _211  and  _212
REMARK   87  A    between atoms: _211  and  _214
REMARK   88  A    between atoms: _214  and  _215
REMARK   89  A    between atoms: _220  and  _221
REMARK   90  A    between atoms: _223  and  _225
REMARK   91  A    between atoms: _225  and  _226
REMARK   92  A    between atoms: _225  and  _228
REMARK   93  A    between atoms: _228  and  _229
REMARK   94  A    between atoms: _234  and  _235
REMARK   95  A    between atoms: _237  and  _239
REMARK   96  A    between atoms: _239  and  _240
REMARK   97  A    between atoms: _239  and  _242
REMARK   98  A    between atoms: _242  and  _243
REMARK   99  A    between atoms: _243  and  _244
REMARK  100  A    between atoms: _249  and  _251
REMARK  101  A    between atoms: _251  and  _252
REMARK  102  A    between atoms: _251  and  _254
REMARK  103  A    between atoms: _254  and  _255
REMARK  104  A    between atoms: _255  and  _256
REMARK  105  A    between atoms: _256  and  _257
REMARK  106  A    between atoms: _266  and  _268
REMARK  107  A    between atoms: _268  and  _269
REMARK  108  A    between atoms: _268  and  _271
REMARK  109  A    between atoms: _271  and  _272
REMARK  110  A    between atoms: _277  and  _278
REMARK  111  A    between atoms: _280  and  _282
REMARK  112  A    between atoms: _282  and  _283
REMARK  113  A    between atoms: _282  and  _285
REMARK  114  A    between atoms: _285  and  _286
REMARK  115  A    between atoms: _289  and  _291
REMARK  116  A    between atoms: _291  and  _292
REMARK  117  A    between atoms: _291  and  _294
REMARK  118  A    between atoms: _294  and  _295
REMARK  119  A    between atoms: _305  and  _307
REMARK  120  A    between atoms: _307  and  _308
REMARK  121  A    between atoms: _307  and  _310
REMARK  122  A    between atoms: _310  and  _311
REMARK  123  A    between atoms: _314  and  _316
REMARK  124  A    between atoms: _316  and  _317
REMARK  125  A    between atoms: _316  and  _319
REMARK  126  A    between atoms: _319  and  _320
REMARK  127  A    between atoms: _320  and  _321
REMARK  128  A    between atoms: _324  and  _326
REMARK  129  A    between atoms: _326  and  _327
REMARK  130  A    between atoms: _326  and  _329
REMARK  131  A    between atoms: _329  and  _330
REMARK  132  A    between atoms: _332  and  _334
REMARK  133  A    between atoms: _334  and  _335
REMARK  134  A    between atoms: _334  and  _337
REMARK  135  A    between atoms: _337  and  _338
REMARK  136  A    between atoms: _341  and  _343
REMARK  137  A    between atoms: _343  and  _344
REMARK  138  A    between atoms: _346  and  _348
REMARK  139  A    between atoms: _348  and  _349
REMARK  140  A    between atoms: _348  and  _351
REMARK  141  A    between atoms: _351  and  _352
REMARK  142  A    between atoms: _362  and  _364
REMARK  143  A    between atoms: _364  and  _365
REMARK  144  A    between atoms: _364  and  _367
REMARK  145  A    between atoms: _367  and  _368
REMARK  146  A    between atoms: _368  and  _369
REMARK  147  A    between atoms: _369  and  _370
REMARK  148  A    between atoms: _379  and  _381
REMARK  149  A    between atoms: _381  and  _382
REMARK  150  A    between atoms: _381  and  _384
REMARK  151  A    between atoms: _384  and  _385
REMARK  152  A    between atoms: _385  and  _386
REMARK  153  A    between atoms: _386  and  _387
REMARK  154  A    between atoms: _387  and  _388
REMARK  155  A    between atoms: _392  and  _394
REMARK  156  A    between atoms: _394  and  _395
REMARK  157  A    between atoms: _394  and  _397
REMARK  158  A    between atoms: _397  and  _398
REMARK  159  A    between atoms: _398  and  _399
REMARK  160  A    between atoms: _404  and  _406
REMARK  161  A    between atoms: _406  and  _407
REMARK  162  A    between atoms: _406  and  _409
REMARK  163  A    between atoms: _409  and  _410
REMARK                            x       y       z     vdW  Elec       q    Type
REMARK                         _______ _______ _______ _____ _____    ______ ____
ROOT
ATOM      1  O   HOH     1      16.629   7.134  12.978  0.00  0.00    +0.000 OA
ENDROOT
TORSDOF 0
REMARK  Name = ../refined-set-2016/3ujc/3ujc_pocket.pdb
REMARK  163 active torsions:
REMARK  status: ('A' for Active; 'I' for Inactive)
REMARK    1  A    between atoms: _1  and  _3
REMARK    2  A    between atoms: _3  and  _4
REMARK    3  A    between atoms: _3  and  _6
REMARK    4  A    between atoms: _6  and  _7
REMARK    5  A    between atoms: _7  and  _8
REMARK    6  A    between atoms: _13  and  _15
REMARK    7  A    between atoms: _15  and  _16
REMARK    8  A    between atoms: _15  and  _18
REMARK    9  A    between atoms: _18  and  _19
REMARK   10  A    between atoms: _24  and  _25
REMARK   11  A    between atoms: _27  and  _29
REMARK   12  A    between atoms: _29  and  _30
REMARK   13  A    between atoms: _32  and  _34
REMARK   14  A    between atoms: _34  and  _35
REMARK   15  A    between atoms: _34  and  _37
REMARK   16  A    between atoms: _37  and  _38
REMARK   17  A    between atoms: _43  and  _44
REMARK   18  A    between atoms: _46  and  _48
REMARK   19  A    between atoms: _48  and  _49
REMARK   20  A    between atoms: _48  and  _51
REMARK   21  A    between atoms: _51  and  _52
REMARK   22  A    between atoms: _55  and  _57
REMARK   23  A    between atoms: _57  and  _58
REMARK   24  A    between atoms: _57  and  _60
REMARK   25  A    between atoms: _60  and  _61
REMARK   26  A    between atoms: _67  and  _69
REMARK   27  A    between atoms: _69  and  _70
REMARK   28  A    between atoms: _69  and  _72
REMARK   29  A    between atoms: _72  and  _73
REMARK   30  A    between atoms: _78  and  _79
REMARK   31  A    between atoms: _81  and  _83
REMARK   32  A    between atoms: _83  and  _84
REMARK   33  A    between atoms: _83  and  _86
REMARK   34  A    between atoms: _86  and  _87
REMARK   35  A    between atoms: _90  and  _92
REMARK   36  A    between atoms: _92  and  _93
REMARK   37  A    between atoms: _92  and  _95
REMARK   38  A    between atoms: _95  and  _96
REMARK   39  A    between atoms: _98  and  _100
REMARK   40  A    between atoms: _100  and  _101
REMARK   41  A    between atoms: _100  and  _103
REMARK   42  A    between atoms: _103  and  _104
REMARK   43  A    between atoms: _106  and  _108
REMARK   44  A    between atoms: _108  and  _109
REMARK   45  A    between atoms: _111  and  _113
REMARK   46  A    between atoms: _113  and  _114
REMARK   47  A    between atoms: _116  and  _118
REMARK   48  A    between atoms: _118  and  _119
REMARK   49  A    between atoms: _121  and  _123
REMARK   50  A    between atoms: _123  and  _124
REMARK   51  A    between atoms: _126  and  _128
REMARK   52  A    between atoms: _128  and  _129
REMARK   53  A    between atoms: _128  and  _131
REMARK   54  A    between atoms: _131  and  _132
REMARK   55  A    between atoms: _135  and  _137
REMARK   56  A    between atoms: _137  and  _138
REMARK   57  A    between atoms: _137  and  _140
REMARK   58  A    between atoms: _140  and  _141
REMARK   59  A    between atoms: _141  and  _142
REMARK   60  A    between atoms: _142  and  _143
REMARK   61  A    between atoms: _152  and  _154
REMARK   62  A    between atoms: _154  and  _155
REMARK   63  A    between atoms: _154  and  _157
REMARK   64  A    between atoms: _157  and  _158
REMARK   65  A    between atoms: _161  and  _163
REMARK   66  A    between atoms: _163  and  _164
REMARK   67  A    between atoms: _167  and  _169
REMARK   68  A    between atoms: _169  and  _170
REMARK   69  A    between atoms: _169  and  _172
REMARK   70  A    between atoms: _172  and  _173
REMARK   71  A    between atoms: _176  and  _178
REMARK   72  A    between atoms: _178  and  _179
REMARK   73  A    between atoms: _178  and  _181
REMARK   74  A    between atoms: _181  and  _182
REMARK   75  A    between atoms: _185  and  _187
REMARK   76  A    between atoms: _187  and  _188
REMARK   77  A    between atoms: _191  and  _193
REMARK   78  A    between atoms: _193  and  _194
REMARK   79  A    between atoms: _193  and  _196
REMARK   80  A    between atoms: _196  and  _197
REMARK   81  A    between atoms: _200  and  _202
REMARK   82  A    between atoms: _202  and  _203
REMARK   83  A    between atoms: _202  and  _205
REMARK   84  A    between atoms: _205  and  _206
REMARK   85  A    between atoms: _209  and  _211
REMARK   86  A    between atoms: _211  and  _212
REMARK   87  A    between atoms: _211  and  _214
REMARK   88  A    between atoms: _214  and  _215
REMARK   89  A    between atoms: _220  and  _221
REMARK   90  A    between atoms: _223  and  _225
REMARK   91  A    between atoms: _225  and  _226
REMARK   92  A    between atoms: _225  and  _228
REMARK   93  A    between atoms: _228  and  _229
REMARK   94  A    between atoms: _234  and  _235
REMARK   95  A    between atoms: _237  and  _239
REMARK   96  A    between atoms: _239  and  _240
REMARK   97  A    between atoms: _239  and  _242
REMARK   98  A    between atoms: _242  and  _243
REMARK   99  A    between atoms: _243  and  _244
REMARK  100  A    between atoms: _249  and  _251
REMARK  101  A    between atoms: _251  and  _252
REMARK  102  A    between atoms: _251  and  _254
REMARK  103  A    between atoms: _254  and  _255
REMARK  104  A    between atoms: _255  and  _256
REMARK  105  A    between atoms: _256  and  _257
REMARK  106  A    between atoms: _266  and  _268
REMARK  107  A    between atoms: _268  and  _269
REMARK  108  A    between atoms: _268  and  _271
REMARK  109  A    between atoms: _271  and  _272
REMARK  110  A    between atoms: _277  and  _278
REMARK  111  A    between atoms: _280  and  _282
REMARK  112  A    between atoms: _282  and  _283
REMARK  113  A    between atoms: _282  and  _285
REMARK  114  A    between atoms: _285  and  _286
REMARK  115  A    between atoms: _289  and  _291
REMARK  116  A    between atoms: _291  and  _292
REMARK  117  A    between atoms: _291  and  _294
REMARK  118  A    between atoms: _294  and  _295
REMARK  119  A    between atoms: _305  and  _307
REMARK  120  A    between atoms: _307  and  _308
REMARK  121  A    between atoms: _307  and  _310
REMARK  122  A    between atoms: _310  and  _311
REMARK  123  A    between atoms: _314  and  _316
REMARK  124  A    between atoms: _316  and  _317
REMARK  125  A    between atoms: _316  and  _319
REMARK  126  A    between atoms: _319  and  _320
REMARK  127  A    between atoms: _320  and  _321
REMARK  128  A    between atoms: _324  and  _326
REMARK  129  A    between atoms: _326  and  _327
REMARK  130  A    between atoms: _326  and  _329
REMARK  131  A    between atoms: _329  and  _330
REMARK  132  A    between atoms: _332  and  _334
REMARK  133  A    between atoms: _334  and  _335
REMARK  134  A    between atoms: _334  and  _337
REMARK  135  A    between atoms: _337  and  _338
REMARK  136  A    between atoms: _341  and  _343
REMARK  137  A    between atoms: _343  and  _344
REMARK  138  A    between atoms: _346  and  _348
REMARK  139  A    between atoms: _348  and  _349
REMARK  140  A    between atoms: _348  and  _351
REMARK  141  A    between atoms: _351  and  _352
REMARK  142  A    between atoms: _362  and  _364
REMARK  143  A    between atoms: _364  and  _365
REMARK  144  A    between atoms: _364  and  _367
REMARK  145  A    between atoms: _367  and  _368
REMARK  146  A    between atoms: _368  and  _369
REMARK  147  A    between atoms: _369  and  _370
REMARK  148  A    between atoms: _379  and  _381
REMARK  149  A    between atoms: _381  and  _382
REMARK  150  A    between atoms: _381  and  _384
REMARK  151  A    between atoms: _384  and  _385
REMARK  152  A    between atoms: _385  and  _386
REMARK  153  A    between atoms: _386  and  _387
REMARK  154  A    between atoms: _387  and  _388
REMARK  155  A    between atoms: _392  and  _394
REMARK  156  A    between atoms: _394  and  _395
REMARK  157  A    between atoms: _394  and  _397
REMARK  158  A    between atoms: _397  and  _398
REMARK  159  A    between atoms: _398  and  _399
REMARK  160  A    between atoms: _404  and  _406
REMARK  161  A    between atoms: _406  and  _407
REMARK  162  A    between atoms: _406  and  _409
REMARK  163  A    between atoms: _409  and  _410
REMARK                            x       y       z     vdW  Elec       q    Type
REMARK                         _______ _______ _______ _____ _____    ______ ____
ROOT
ATOM      1  O   HOH     1      13.124  15.014  25.993  0.00  0.00    +0.000 OA
ENDROOT
TORSDOF 0
REMARK  Name = ../refined-set-2016/3ujc/3ujc_pocket.pdb
REMARK  163 active torsions:
REMARK  status: ('A' for Active; 'I' for Inactive)
REMARK    1  A    between atoms: _1  and  _3
REMARK    2  A    between atoms: _3  and  _4
REMARK    3  A    between atoms: _3  and  _6
REMARK    4  A    between atoms: _6  and  _7
REMARK    5  A    between atoms: _7  and  _8
REMARK    6  A    between atoms: _13  and  _15
REMARK    7  A    between atoms: _15  and  _16
REMARK    8  A    between atoms: _15  and  _18
REMARK    9  A    between atoms: _18  and  _19
REMARK   10  A    between atoms: _24  and  _25
REMARK   11  A    between atoms: _27  and  _29
REMARK   12  A    between atoms: _29  and  _30
REMARK   13  A    between atoms: _32  and  _34
REMARK   14  A    between atoms: _34  and  _35
REMARK   15  A    between atoms: _34  and  _37
REMARK   16  A    between atoms: _37  and  _38
REMARK   17  A    between atoms: _43  and  _44
REMARK   18  A    between atoms: _46  and  _48
REMARK   19  A    between atoms: _48  and  _49
REMARK   20  A    between atoms: _48  and  _51
REMARK   21  A    between atoms: _51  and  _52
REMARK   22  A    between atoms: _55  and  _57
REMARK   23  A    between atoms: _57  and  _58
REMARK   24  A    between atoms: _57  and  _60
REMARK   25  A    between atoms: _60  and  _61
REMARK   26  A    between atoms: _67  and  _69
REMARK   27  A    between atoms: _69  and  _70
REMARK   28  A    between atoms: _69  and  _72
REMARK   29  A    between atoms: _72  and  _73
REMARK   30  A    between atoms: _78  and  _79
REMARK   31  A    between atoms: _81  and  _83
REMARK   32  A    between atoms: _83  and  _84
REMARK   33  A    between atoms: _83  and  _86
REMARK   34  A    between atoms: _86  and  _87
REMARK   35  A    between atoms: _90  and  _92
REMARK   36  A    between atoms: _92  and  _93
REMARK   37  A    between atoms: _92  and  _95
REMARK   38  A    between atoms: _95  and  _96
REMARK   39  A    between atoms: _98  and  _100
REMARK   40  A    between atoms: _100  and  _101
REMARK   41  A    between atoms: _100  and  _103
REMARK   42  A    between atoms: _103  and  _104
REMARK   43  A    between atoms: _106  and  _108
REMARK   44  A    between atoms: _108  and  _109
REMARK   45  A    between atoms: _111  and  _113
REMARK   46  A    between atoms: _113  and  _114
REMARK   47  A    between atoms: _116  and  _118
REMARK   48  A    between atoms: _118  and  _119
REMARK   49  A    between atoms: _121  and  _123
REMARK   50  A    between atoms: _123  and  _124
REMARK   51  A    between atoms: _126  and  _128
REMARK   52  A    between atoms: _128  and  _129
REMARK   53  A    between atoms: _128  and  _131
REMARK   54  A    between atoms: _131  and  _132
REMARK   55  A    between atoms: _135  and  _137
REMARK   56  A    between atoms: _137  and  _138
REMARK   57  A    between atoms: _137  and  _140
REMARK   58  A    between atoms: _140  and  _141
REMARK   59  A    between atoms: _141  and  _142
REMARK   60  A    between atoms: _142  and  _143
REMARK   61  A    between atoms: _152  and  _154
REMARK   62  A    between atoms: _154  and  _155
REMARK   63  A    between atoms: _154  and  _157
REMARK   64  A    between atoms: _157  and  _158
REMARK   65  A    between atoms: _161  and  _163
REMARK   66  A    between atoms: _163  and  _164
REMARK   67  A    between atoms: _167  and  _169
REMARK   68  A    between atoms: _169  and  _170
REMARK   69  A    between atoms: _169  and  _172
REMARK   70  A    between atoms: _172  and  _173
REMARK   71  A    between atoms: _176  and  _178
REMARK   72  A    between atoms: _178  and  _179
REMARK   73  A    between atoms: _178  and  _181
REMARK   74  A    between atoms: _181  and  _182
REMARK   75  A    between atoms: _185  and  _187
REMARK   76  A    between atoms: _187  and  _188
REMARK   77  A    between atoms: _191  and  _193
REMARK   78  A    between atoms: _193  and  _194
REMARK   79  A    between atoms: _193  and  _196
REMARK   80  A    between atoms: _196  and  _197
REMARK   81  A    between atoms: _200  and  _202
REMARK   82  A    between atoms: _202  and  _203
REMARK   83  A    between atoms: _202  and  _205
REMARK   84  A    between atoms: _205  and  _206
REMARK   85  A    between atoms: _209  and  _211
REMARK   86  A    between atoms: _211  and  _212
REMARK   87  A    between atoms: _211  and  _214
REMARK   88  A    between atoms: _214  and  _215
REMARK   89  A    between atoms: _220  and  _221
REMARK   90  A    between atoms: _223  and  _225
REMARK   91  A    between atoms: _225  and  _226
REMARK   92  A    between atoms: _225  and  _228
REMARK   93  A    between atoms: _228  and  _229
REMARK   94  A    between atoms: _234  and  _235
REMARK   95  A    between atoms: _237  and  _239
REMARK   96  A    between atoms: _239  and  _240
REMARK   97  A    between atoms: _239  and  _242
REMARK   98  A    between atoms: _242  and  _243
REMARK   99  A    between atoms: _243  and  _244
REMARK  100  A    between atoms: _249  and  _251
REMARK  101  A    between atoms: _251  and  _252
REMARK  102  A    between atoms: _251  and  _254
REMARK  103  A    between atoms: _254  and  _255
REMARK  104  A    between atoms: _255  and  _256
REMARK  105  A    between atoms: _256  and  _257
REMARK  106  A    between atoms: _266  and  _268
REMARK  107  A    between atoms: _268  and  _269
REMARK  108  A    between atoms: _268  and  _271
REMARK  109  A    between atoms: _271  and  _272
REMARK  110  A    between atoms: _277  and  _278
REMARK  111  A    between atoms: _280  and  _282
REMARK  112  A    between atoms: _282  and  _283
REMARK  113  A    between atoms: _282  and  _285
REMARK  114  A    between atoms: _285  and  _286
REMARK  115  A    between atoms: _289  and  _291
REMARK  116  A    between atoms: _291  and  _292
REMARK  117  A    between atoms: _291  and  _294
REMARK  118  A    between atoms: _294  and  _295
REMARK  119  A    between atoms: _305  and  _307
REMARK  120  A    between atoms: _307  and  _308
REMARK  121  A    between atoms: _307  and  _310
REMARK  122  A    between atoms: _310  and  _311
REMARK  123  A    between atoms: _314  and  _316
REMARK  124  A    between atoms: _316  and  _317
REMARK  125  A    between atoms: _316  and  _319
REMARK  126  A    between atoms: _319  and  _320
REMARK  127  A    between atoms: _320  and  _321
REMARK  128  A    between atoms: _324  and  _326
REMARK  129  A    between atoms: _326  and  _327
REMARK  130  A    between atoms: _326  and  _329
REMARK  131  A    between atoms: _329  and  _330
REMARK  132  A    between atoms: _332  and  _334
REMARK  133  A    between atoms: _334  and  _335
REMARK  134  A    between atoms: _334  and  _337
REMARK  135  A    between atoms: _337  and  _338
REMARK  136  A    between atoms: _341  and  _343
REMARK  137  A    between atoms: _343  and  _344
REMARK  138  A    between atoms: _346  and  _348
REMARK  139  A    between atoms: _348  and  _349
REMARK  140  A    between atoms: _348  and  _351
REMARK  141  A    between atoms: _351  and  _352
REMARK  142  A    between atoms: _362  and  _364
REMARK  143  A    between atoms: _364  and  _365
REMARK  144  A    between atoms: _364  and  _367
REMARK  145  A    between atoms: _367  and  _368
REMARK  146  A    between atoms: _368  and  _369
REMARK  147  A    between atoms: _369  and  _370
REMARK  148  A    between atoms: _379  and  _381
REMARK  149  A    between atoms: _381  and  _382
REMARK  150  A    between atoms: _381  and  _384
REMARK  151  A    between atoms: _384  and  _385
REMARK  152  A    between atoms: _385  and  _386
REMARK  153  A    between atoms: _386  and  _387
REMARK  154  A    between atoms: _387  and  _388
REMARK  155  A    between atoms: _392  and  _394
REMARK  156  A    between atoms: _394  and  _395
REMARK  157  A    between atoms: _394  and  _397
REMARK  158  A    between atoms: _397  and  _398
REMARK  159  A    between atoms: _398  and  _399
REMARK  160  A    between atoms: _404  and  _406
REMARK  161  A    between atoms: _406  and  _407
REMARK  162  A    between atoms: _406  and  _409
REMARK  163  A    between atoms: _409  and  _410
REMARK                            x       y       z     vdW  Elec       q    Type
REMARK                         _______ _______ _______ _____ _____    ______ ____
ROOT
ATOM      1  O   HOH     1      17.763   6.068  17.101  0.00  0.00    +0.000 OA
ENDROOT
TORSDOF 0
REMARK  Name = ../refined-set-2016/3ujc/3ujc_pocket.pdb
REMARK  163 active torsions:
REMARK  status: ('A' for Active; 'I' for Inactive)
REMARK    1  A    between atoms: _1  and  _3
REMARK    2  A    between atoms: _3  and  _4
REMARK    3  A    between atoms: _3  and  _6
REMARK    4  A    between atoms: _6  and  _7
REMARK    5  A    between atoms: _7  and  _8
REMARK    6  A    between atoms: _13  and  _15
REMARK    7  A    between atoms: _15  and  _16
REMARK    8  A    between atoms: _15  and  _18
REMARK    9  A    between atoms: _18  and  _19
REMARK   10  A    between atoms: _24  and  _25
REMARK   11  A    between atoms: _27  and  _29
REMARK   12  A    between atoms: _29  and  _30
REMARK   13  A    between atoms: _32  and  _34
REMARK   14  A    between atoms: _34  and  _35
REMARK   15  A    between atoms: _34  and  _37
REMARK   16  A    between atoms: _37  and  _38
REMARK   17  A    between atoms: _43  and  _44
REMARK   18  A    between atoms: _46  and  _48
REMARK   19  A    between atoms: _48  and  _49
REMARK   20  A    between atoms: _48  and  _51
REMARK   21  A    between atoms: _51  and  _52
REMARK   22  A    between atoms: _55  and  _57
REMARK   23  A    between atoms: _57  and  _58
REMARK   24  A    between atoms: _57  and  _60
REMARK   25  A    between atoms: _60  and  _61
REMARK   26  A    between atoms: _67  and  _69
REMARK   27  A    between atoms: _69  and  _70
REMARK   28  A    between atoms: _69  and  _72
REMARK   29  A    between atoms: _72  and  _73
REMARK   30  A    between atoms: _78  and  _79
REMARK   31  A    between atoms: _81  and  _83
REMARK   32  A    between atoms: _83  and  _84
REMARK   33  A    between atoms: _83  and  _86
REMARK   34  A    between atoms: _86  and  _87
REMARK   35  A    between atoms: _90  and  _92
REMARK   36  A    between atoms: _92  and  _93
REMARK   37  A    between atoms: _92  and  _95
REMARK   38  A    between atoms: _95  and  _96
REMARK   39  A    between atoms: _98  and  _100
REMARK   40  A    between atoms: _100  and  _101
REMARK   41  A    between atoms: _100  and  _103
REMARK   42  A    between atoms: _103  and  _104
REMARK   43  A    between atoms: _106  and  _108
REMARK   44  A    between atoms: _108  and  _109
REMARK   45  A    between atoms: _111  and  _113
REMARK   46  A    between atoms: _113  and  _114
REMARK   47  A    between atoms: _116  and  _118
REMARK   48  A    between atoms: _118  and  _119
REMARK   49  A    between atoms: _121  and  _123
REMARK   50  A    between atoms: _123  and  _124
REMARK   51  A    between atoms: _126  and  _128
REMARK   52  A    between atoms: _128  and  _129
REMARK   53  A    between atoms: _128  and  _131
REMARK   54  A    between atoms: _131  and  _132
REMARK   55  A    between atoms: _135  and  _137
REMARK   56  A    between atoms: _137  and  _138
REMARK   57  A    between atoms: _137  and  _140
REMARK   58  A    between atoms: _140  and  _141
REMARK   59  A    between atoms: _141  and  _142
REMARK   60  A    between atoms: _142  and  _143
REMARK   61  A    between atoms: _152  and  _154
REMARK   62  A    between atoms: _154  and  _155
REMARK   63  A    between atoms: _154  and  _157
REMARK   64  A    between atoms: _157  and  _158
REMARK   65  A    between atoms: _161  and  _163
REMARK   66  A    between atoms: _163  and  _164
REMARK   67  A    between atoms: _167  and  _169
REMARK   68  A    between atoms: _169  and  _170
REMARK   69  A    between atoms: _169  and  _172
REMARK   70  A    between atoms: _172  and  _173
REMARK   71  A    between atoms: _176  and  _178
REMARK   72  A    between atoms: _178  and  _179
REMARK   73  A    between atoms: _178  and  _181
REMARK   74  A    between atoms: _181  and  _182
REMARK   75  A    between atoms: _185  and  _187
REMARK   76  A    between atoms: _187  and  _188
REMARK   77  A    between atoms: _191  and  _193
REMARK   78  A    between atoms: _193  and  _194
REMARK   79  A    between atoms: _193  and  _196
REMARK   80  A    between atoms: _196  and  _197
REMARK   81  A    between atoms: _200  and  _202
REMARK   82  A    between atoms: _202  and  _203
REMARK   83  A    between atoms: _202  and  _205
REMARK   84  A    between atoms: _205  and  _206
REMARK   85  A    between atoms: _209  and  _211
REMARK   86  A    between atoms: _211  and  _212
REMARK   87  A    between atoms: _211  and  _214
REMARK   88  A    between atoms: _214  and  _215
REMARK   89  A    between atoms: _220  and  _221
REMARK   90  A    between atoms: _223  and  _225
REMARK   91  A    between atoms: _225  and  _226
REMARK   92  A    between atoms: _225  and  _228
REMARK   93  A    between atoms: _228  and  _229
REMARK   94  A    between atoms: _234  and  _235
REMARK   95  A    between atoms: _237  and  _239
REMARK   96  A    between atoms: _239  and  _240
REMARK   97  A    between atoms: _239  and  _242
REMARK   98  A    between atoms: _242  and  _243
REMARK   99  A    between atoms: _243  and  _244
REMARK  100  A    between atoms: _249  and  _251
REMARK  101  A    between atoms: _251  and  _252
REMARK  102  A    between atoms: _251  and  _254
REMARK  103  A    between atoms: _254  and  _255
REMARK  104  A    between atoms: _255  and  _256
REMARK  105  A    between atoms: _256  and  _257
REMARK  106  A    between atoms: _266  and  _268
REMARK  107  A    between atoms: _268  and  _269
REMARK  108  A    between atoms: _268  and  _271
REMARK  109  A    between atoms: _271  and  _272
REMARK  110  A    between atoms: _277  and  _278
REMARK  111  A    between atoms: _280  and  _282
REMARK  112  A    between atoms: _282  and  _283
REMARK  113  A    between atoms: _282  and  _285
REMARK  114  A    between atoms: _285  and  _286
REMARK  115  A    between atoms: _289  and  _291
REMARK  116  A    between atoms: _291  and  _292
REMARK  117  A    between atoms: _291  and  _294
REMARK  118  A    between atoms: _294  and  _295
REMARK  119  A    between atoms: _305  and  _307
REMARK  120  A    between atoms: _307  and  _308
REMARK  121  A    between atoms: _307  and  _310
REMARK  122  A    between atoms: _310  and  _311
REMARK  123  A    between atoms: _314  and  _316
REMARK  124  A    between atoms: _316  and  _317
REMARK  125  A    between atoms: _316  and  _319
REMARK  126  A    between atoms: _319  and  _320
REMARK  127  A    between atoms: _320  and  _321
REMARK  128  A    between atoms: _324  and  _326
REMARK  129  A    between atoms: _326  and  _327
REMARK  130  A    between atoms: _326  and  _329
REMARK  131  A    between atoms: _329  and  _330
REMARK  132  A    between atoms: _332  and  _334
REMARK  133  A    between atoms: _334  and  _335
REMARK  134  A    between atoms: _334  and  _337
REMARK  135  A    between atoms: _337  and  _338
REMARK  136  A    between atoms: _341  and  _343
REMARK  137  A    between atoms: _343  and  _344
REMARK  138  A    between atoms: _346  and  _348
REMARK  139  A    between atoms: _348  and  _349
REMARK  140  A    between atoms: _348  and  _351
REMARK  141  A    between atoms: _351  and  _352
REMARK  142  A    between atoms: _362  and  _364
REMARK  143  A    between atoms: _364  and  _365
REMARK  144  A    between atoms: _364  and  _367
REMARK  145  A    between atoms: _367  and  _368
REMARK  146  A    between atoms: _368  and  _369
REMARK  147  A    between atoms: _369  and  _370
REMARK  148  A    between atoms: _379  and  _381
REMARK  149  A    between atoms: _381  and  _382
REMARK  150  A    between atoms: _381  and  _384
REMARK  151  A    between atoms: _384  and  _385
REMARK  152  A    between atoms: _385  and  _386
REMARK  153  A    between atoms: _386  and  _387
REMARK  154  A    between atoms: _387  and  _388
REMARK  155  A    between atoms: _392  and  _394
REMARK  156  A    between atoms: _394  and  _395
REMARK  157  A    between atoms: _394  and  _397
REMARK  158  A    between atoms: _397  and  _398
REMARK  159  A    between atoms: _398  and  _399
REMARK  160  A    between atoms: _404  and  _406
REMARK  161  A    between atoms: _406  and  _407
REMARK  162  A    between atoms: _406  and  _409
REMARK  163  A    between atoms: _409  and  _410
REMARK                            x       y       z     vdW  Elec       q    Type
REMARK                         _______ _______ _______ _____ _____    ______ ____
ROOT
ATOM      1  O   HOH     1      20.789  19.539  15.140  0.00  0.00    +0.000 OA
ENDROOT
TORSDOF 0
REMARK  Name = ../refined-set-2016/3ujc/3ujc_pocket.pdb
REMARK  163 active torsions:
REMARK  status: ('A' for Active; 'I' for Inactive)
REMARK    1  A    between atoms: _1  and  _3
REMARK    2  A    between atoms: _3  and  _4
REMARK    3  A    between atoms: _3  and  _6
REMARK    4  A    between atoms: _6  and  _7
REMARK    5  A    between atoms: _7  and  _8
REMARK    6  A    between atoms: _13  and  _15
REMARK    7  A    between atoms: _15  and  _16
REMARK    8  A    between atoms: _15  and  _18
REMARK    9  A    between atoms: _18  and  _19
REMARK   10  A    between atoms: _24  and  _25
REMARK   11  A    between atoms: _27  and  _29
REMARK   12  A    between atoms: _29  and  _30
REMARK   13  A    between atoms: _32  and  _34
REMARK   14  A    between atoms: _34  and  _35
REMARK   15  A    between atoms: _34  and  _37
REMARK   16  A    between atoms: _37  and  _38
REMARK   17  A    between atoms: _43  and  _44
REMARK   18  A    between atoms: _46  and  _48
REMARK   19  A    between atoms: _48  and  _49
REMARK   20  A    between atoms: _48  and  _51
REMARK   21  A    between atoms: _51  and  _52
REMARK   22  A    between atoms: _55  and  _57
REMARK   23  A    between atoms: _57  and  _58
REMARK   24  A    between atoms: _57  and  _60
REMARK   25  A    between atoms: _60  and  _61
REMARK   26  A    between atoms: _67  and  _69
REMARK   27  A    between atoms: _69  and  _70
REMARK   28  A    between atoms: _69  and  _72
REMARK   29  A    between atoms: _72  and  _73
REMARK   30  A    between atoms: _78  and  _79
REMARK   31  A    between atoms: _81  and  _83
REMARK   32  A    between atoms: _83  and  _84
REMARK   33  A    between atoms: _83  and  _86
REMARK   34  A    between atoms: _86  and  _87
REMARK   35  A    between atoms: _90  and  _92
REMARK   36  A    between atoms: _92  and  _93
REMARK   37  A    between atoms: _92  and  _95
REMARK   38  A    between atoms: _95  and  _96
REMARK   39  A    between atoms: _98  and  _100
REMARK   40  A    between atoms: _100  and  _101
REMARK   41  A    between atoms: _100  and  _103
REMARK   42  A    between atoms: _103  and  _104
REMARK   43  A    between atoms: _106  and  _108
REMARK   44  A    between atoms: _108  and  _109
REMARK   45  A    between atoms: _111  and  _113
REMARK   46  A    between atoms: _113  and  _114
REMARK   47  A    between atoms: _116  and  _118
REMARK   48  A    between atoms: _118  and  _119
REMARK   49  A    between atoms: _121  and  _123
REMARK   50  A    between atoms: _123  and  _124
REMARK   51  A    between atoms: _126  and  _128
REMARK   52  A    between atoms: _128  and  _129
REMARK   53  A    between atoms: _128  and  _131
REMARK   54  A    between atoms: _131  and  _132
REMARK   55  A    between atoms: _135  and  _137
REMARK   56  A    between atoms: _137  and  _138
REMARK   57  A    between atoms: _137  and  _140
REMARK   58  A    between atoms: _140  and  _141
REMARK   59  A    between atoms: _141  and  _142
REMARK   60  A    between atoms: _142  and  _143
REMARK   61  A    between atoms: _152  and  _154
REMARK   62  A    between atoms: _154  and  _155
REMARK   63  A    between atoms: _154  and  _157
REMARK   64  A    between atoms: _157  and  _158
REMARK   65  A    between atoms: _161  and  _163
REMARK   66  A    between atoms: _163  and  _164
REMARK   67  A    between atoms: _167  and  _169
REMARK   68  A    between atoms: _169  and  _170
REMARK   69  A    between atoms: _169  and  _172
REMARK   70  A    between atoms: _172  and  _173
REMARK   71  A    between atoms: _176  and  _178
REMARK   72  A    between atoms: _178  and  _179
REMARK   73  A    between atoms: _178  and  _181
REMARK   74  A    between atoms: _181  and  _182
REMARK   75  A    between atoms: _185  and  _187
REMARK   76  A    between atoms: _187  and  _188
REMARK   77  A    between atoms: _191  and  _193
REMARK   78  A    between atoms: _193  and  _194
REMARK   79  A    between atoms: _193  and  _196
REMARK   80  A    between atoms: _196  and  _197
REMARK   81  A    between atoms: _200  and  _202
REMARK   82  A    between atoms: _202  and  _203
REMARK   83  A    between atoms: _202  and  _205
REMARK   84  A    between atoms: _205  and  _206
REMARK   85  A    between atoms: _209  and  _211
REMARK   86  A    between atoms: _211  and  _212
REMARK   87  A    between atoms: _211  and  _214
REMARK   88  A    between atoms: _214  and  _215
REMARK   89  A    between atoms: _220  and  _221
REMARK   90  A    between atoms: _223  and  _225
REMARK   91  A    between atoms: _225  and  _226
REMARK   92  A    between atoms: _225  and  _228
REMARK   93  A    between atoms: _228  and  _229
REMARK   94  A    between atoms: _234  and  _235
REMARK   95  A    between atoms: _237  and  _239
REMARK   96  A    between atoms: _239  and  _240
REMARK   97  A    between atoms: _239  and  _242
REMARK   98  A    between atoms: _242  and  _243
REMARK   99  A    between atoms: _243  and  _244
REMARK  100  A    between atoms: _249  and  _251
REMARK  101  A    between atoms: _251  and  _252
REMARK  102  A    between atoms: _251  and  _254
REMARK  103  A    between atoms: _254  and  _255
REMARK  104  A    between atoms: _255  and  _256
REMARK  105  A    between atoms: _256  and  _257
REMARK  106  A    between atoms: _266  and  _268
REMARK  107  A    between atoms: _268  and  _269
REMARK  108  A    between atoms: _268  and  _271
REMARK  109  A    between atoms: _271  and  _272
REMARK  110  A    between atoms: _277  and  _278
REMARK  111  A    between atoms: _280  and  _282
REMARK  112  A    between atoms: _282  and  _283
REMARK  113  A    between atoms: _282  and  _285
REMARK  114  A    between atoms: _285  and  _286
REMARK  115  A    between atoms: _289  and  _291
REMARK  116  A    between atoms: _291  and  _292
REMARK  117  A    between atoms: _291  and  _294
REMARK  118  A    between atoms: _294  and  _295
REMARK  119  A    between atoms: _305  and  _307
REMARK  120  A    between atoms: _307  and  _308
REMARK  121  A    between atoms: _307  and  _310
REMARK  122  A    between atoms: _310  and  _311
REMARK  123  A    between atoms: _314  and  _316
REMARK  124  A    between atoms: _316  and  _317
REMARK  125  A    between atoms: _316  and  _319
REMARK  126  A    between atoms: _319  and  _320
REMARK  127  A    between atoms: _320  and  _321
REMARK  128  A    between atoms: _324  and  _326
REMARK  129  A    between atoms: _326  and  _327
REMARK  130  A    between atoms: _326  and  _329
REMARK  131  A    between atoms: _329  and  _330
REMARK  132  A    between atoms: _332  and  _334
REMARK  133  A    between atoms: _334  and  _335
REMARK  134  A    between atoms: _334  and  _337
REMARK  135  A    between atoms: _337  and  _338
REMARK  136  A    between atoms: _341  and  _343
REMARK  137  A    between atoms: _343  and  _344
REMARK  138  A    between atoms: _346  and  _348
REMARK  139  A    between atoms: _348  and  _349
REMARK  140  A    between atoms: _348  and  _351
REMARK  141  A    between atoms: _351  and  _352
REMARK  142  A    between atoms: _362  and  _364
REMARK  143  A    between atoms: _364  and  _365
REMARK  144  A    between atoms: _364  and  _367
REMARK  145  A    between atoms: _367  and  _368
REMARK  146  A    between atoms: _368  and  _369
REMARK  147  A    between atoms: _369  and  _370
REMARK  148  A    between atoms: _379  and  _381
REMARK  149  A    between atoms: _381  and  _382
REMARK  150  A    between atoms: _381  and  _384
REMARK  151  A    between atoms: _384  and  _385
REMARK  152  A    between atoms: _385  and  _386
REMARK  153  A    between atoms: _386  and  _387
REMARK  154  A    between atoms: _387  and  _388
REMARK  155  A    between atoms: _392  and  _394
REMARK  156  A    between atoms: _394  and  _395
REMARK  157  A    between atoms: _394  and  _397
REMARK  158  A    between atoms: _397  and  _398
REMARK  159  A    between atoms: _398  and  _399
REMARK  160  A    between atoms: _404  and  _406
REMARK  161  A    between atoms: _406  and  _407
REMARK  162  A    between atoms: _406  and  _409
REMARK  163  A    between atoms: _409  and  _410
REMARK                            x       y       z     vdW  Elec       q    Type
REMARK                         _______ _______ _______ _____ _____    ______ ____
ROOT
ATOM      1  O   HOH     1      19.967  18.058  17.311  0.00  0.00    +0.000 OA
ENDROOT
TORSDOF 0
REMARK  Name = ../refined-set-2016/3ujc/3ujc_pocket.pdb
REMARK  163 active torsions:
REMARK  status: ('A' for Active; 'I' for Inactive)
REMARK    1  A    between atoms: _1  and  _3
REMARK    2  A    between atoms: _3  and  _4
REMARK    3  A    between atoms: _3  and  _6
REMARK    4  A    between atoms: _6  and  _7
REMARK    5  A    between atoms: _7  and  _8
REMARK    6  A    between atoms: _13  and  _15
REMARK    7  A    between atoms: _15  and  _16
REMARK    8  A    between atoms: _15  and  _18
REMARK    9  A    between atoms: _18  and  _19
REMARK   10  A    between atoms: _24  and  _25
REMARK   11  A    between atoms: _27  and  _29
REMARK   12  A    between atoms: _29  and  _30
REMARK   13  A    between atoms: _32  and  _34
REMARK   14  A    between atoms: _34  and  _35
REMARK   15  A    between atoms: _34  and  _37
REMARK   16  A    between atoms: _37  and  _38
REMARK   17  A    between atoms: _43  and  _44
REMARK   18  A    between atoms: _46  and  _48
REMARK   19  A    between atoms: _48  and  _49
REMARK   20  A    between atoms: _48  and  _51
REMARK   21  A    between atoms: _51  and  _52
REMARK   22  A    between atoms: _55  and  _57
REMARK   23  A    between atoms: _57  and  _58
REMARK   24  A    between atoms: _57  and  _60
REMARK   25  A    between atoms: _60  and  _61
REMARK   26  A    between atoms: _67  and  _69
REMARK   27  A    between atoms: _69  and  _70
REMARK   28  A    between atoms: _69  and  _72
REMARK   29  A    between atoms: _72  and  _73
REMARK   30  A    between atoms: _78  and  _79
REMARK   31  A    between atoms: _81  and  _83
REMARK   32  A    between atoms: _83  and  _84
REMARK   33  A    between atoms: _83  and  _86
REMARK   34  A    between atoms: _86  and  _87
REMARK   35  A    between atoms: _90  and  _92
REMARK   36  A    between atoms: _92  and  _93
REMARK   37  A    between atoms: _92  and  _95
REMARK   38  A    between atoms: _95  and  _96
REMARK   39  A    between atoms: _98  and  _100
REMARK   40  A    between atoms: _100  and  _101
REMARK   41  A    between atoms: _100  and  _103
REMARK   42  A    between atoms: _103  and  _104
REMARK   43  A    between atoms: _106  and  _108
REMARK   44  A    between atoms: _108  and  _109
REMARK   45  A    between atoms: _111  and  _113
REMARK   46  A    between atoms: _113  and  _114
REMARK   47  A    between atoms: _116  and  _118
REMARK   48  A    between atoms: _118  and  _119
REMARK   49  A    between atoms: _121  and  _123
REMARK   50  A    between atoms: _123  and  _124
REMARK   51  A    between atoms: _126  and  _128
REMARK   52  A    between atoms: _128  and  _129
REMARK   53  A    between atoms: _128  and  _131
REMARK   54  A    between atoms: _131  and  _132
REMARK   55  A    between atoms: _135  and  _137
REMARK   56  A    between atoms: _137  and  _138
REMARK   57  A    between atoms: _137  and  _140
REMARK   58  A    between atoms: _140  and  _141
REMARK   59  A    between atoms: _141  and  _142
REMARK   60  A    between atoms: _142  and  _143
REMARK   61  A    between atoms: _152  and  _154
REMARK   62  A    between atoms: _154  and  _155
REMARK   63  A    between atoms: _154  and  _157
REMARK   64  A    between atoms: _157  and  _158
REMARK   65  A    between atoms: _161  and  _163
REMARK   66  A    between atoms: _163  and  _164
REMARK   67  A    between atoms: _167  and  _169
REMARK   68  A    between atoms: _169  and  _170
REMARK   69  A    between atoms: _169  and  _172
REMARK   70  A    between atoms: _172  and  _173
REMARK   71  A    between atoms: _176  and  _178
REMARK   72  A    between atoms: _178  and  _179
REMARK   73  A    between atoms: _178  and  _181
REMARK   74  A    between atoms: _181  and  _182
REMARK   75  A    between atoms: _185  and  _187
REMARK   76  A    between atoms: _187  and  _188
REMARK   77  A    between atoms: _191  and  _193
REMARK   78  A    between atoms: _193  and  _194
REMARK   79  A    between atoms: _193  and  _196
REMARK   80  A    between atoms: _196  and  _197
REMARK   81  A    between atoms: _200  and  _202
REMARK   82  A    between atoms: _202  and  _203
REMARK   83  A    between atoms: _202  and  _205
REMARK   84  A    between atoms: _205  and  _206
REMARK   85  A    between atoms: _209  and  _211
REMARK   86  A    between atoms: _211  and  _212
REMARK   87  A    between atoms: _211  and  _214
REMARK   88  A    between atoms: _214  and  _215
REMARK   89  A    between atoms: _220  and  _221
REMARK   90  A    between atoms: _223  and  _225
REMARK   91  A    between atoms: _225  and  _226
REMARK   92  A    between atoms: _225  and  _228
REMARK   93  A    between atoms: _228  and  _229
REMARK   94  A    between atoms: _234  and  _235
REMARK   95  A    between atoms: _237  and  _239
REMARK   96  A    between atoms: _239  and  _240
REMARK   97  A    between atoms: _239  and  _242
REMARK   98  A    between atoms: _242  and  _243
REMARK   99  A    between atoms: _243  and  _244
REMARK  100  A    between atoms: _249  and  _251
REMARK  101  A    between atoms: _251  and  _252
REMARK  102  A    between atoms: _251  and  _254
REMARK  103  A    between atoms: _254  and  _255
REMARK  104  A    between atoms: _255  and  _256
REMARK  105  A    between atoms: _256  and  _257
REMARK  106  A    between atoms: _266  and  _268
REMARK  107  A    between atoms: _268  and  _269
REMARK  108  A    between atoms: _268  and  _271
REMARK  109  A    between atoms: _271  and  _272
REMARK  110  A    between atoms: _277  and  _278
REMARK  111  A    between atoms: _280  and  _282
REMARK  112  A    between atoms: _282  and  _283
REMARK  113  A    between atoms: _282  and  _285
REMARK  114  A    between atoms: _285  and  _286
REMARK  115  A    between atoms: _289  and  _291
REMARK  116  A    between atoms: _291  and  _292
REMARK  117  A    between atoms: _291  and  _294
REMARK  118  A    between atoms: _294  and  _295
REMARK  119  A    between atoms: _305  and  _307
REMARK  120  A    between atoms: _307  and  _308
REMARK  121  A    between atoms: _307  and  _310
REMARK  122  A    between atoms: _310  and  _311
REMARK  123  A    between atoms: _314  and  _316
REMARK  124  A    between atoms: _316  and  _317
REMARK  125  A    between atoms: _316  and  _319
REMARK  126  A    between atoms: _319  and  _320
REMARK  127  A    between atoms: _320  and  _321
REMARK  128  A    between atoms: _324  and  _326
REMARK  129  A    between atoms: _326  and  _327
REMARK  130  A    between atoms: _326  and  _329
REMARK  131  A    between atoms: _329  and  _330
REMARK  132  A    between atoms: _332  and  _334
REMARK  133  A    between atoms: _334  and  _335
REMARK  134  A    between atoms: _334  and  _337
REMARK  135  A    between atoms: _337  and  _338
REMARK  136  A    between atoms: _341  and  _343
REMARK  137  A    between atoms: _343  and  _344
REMARK  138  A    between atoms: _346  and  _348
REMARK  139  A    between atoms: _348  and  _349
REMARK  140  A    between atoms: _348  and  _351
REMARK  141  A    between atoms: _351  and  _352
REMARK  142  A    between atoms: _362  and  _364
REMARK  143  A    between atoms: _364  and  _365
REMARK  144  A    between atoms: _364  and  _367
REMARK  145  A    between atoms: _367  and  _368
REMARK  146  A    between atoms: _368  and  _369
REMARK  147  A    between atoms: _369  and  _370
REMARK  148  A    between atoms: _379  and  _381
REMARK  149  A    between atoms: _381  and  _382
REMARK  150  A    between atoms: _381  and  _384
REMARK  151  A    between atoms: _384  and  _385
REMARK  152  A    between atoms: _385  and  _386
REMARK  153  A    between atoms: _386  and  _387
REMARK  154  A    between atoms: _387  and  _388
REMARK  155  A    between atoms: _392  and  _394
REMARK  156  A    between atoms: _394  and  _395
REMARK  157  A    between atoms: _394  and  _397
REMARK  158  A    between atoms: _397  and  _398
REMARK  159  A    between atoms: _398  and  _399
REMARK  160  A    between atoms: _404  and  _406
REMARK  161  A    between atoms: _406  and  _407
REMARK  162  A    between atoms: _406  and  _409
REMARK  163  A    between atoms: _409  and  _410
REMARK                            x       y       z     vdW  Elec       q    Type
REMARK                         _______ _______ _______ _____ _____    ______ ____
ROOT
ATOM      1  O   HOH     1      11.729   4.673  22.746  0.00  0.00    +0.000 OA
ENDROOT
TORSDOF 0
REMARK  Name = ../refined-set-2016/3ujc/3ujc_pocket.pdb
REMARK  163 active torsions:
REMARK  status: ('A' for Active; 'I' for Inactive)
REMARK    1  A    between atoms: _1  and  _3
REMARK    2  A    between atoms: _3  and  _4
REMARK    3  A    between atoms: _3  and  _6
REMARK    4  A    between atoms: _6  and  _7
REMARK    5  A    between atoms: _7  and  _8
REMARK    6  A    between atoms: _13  and  _15
REMARK    7  A    between atoms: _15  and  _16
REMARK    8  A    between atoms: _15  and  _18
REMARK    9  A    between atoms: _18  and  _19
REMARK   10  A    between atoms: _24  and  _25
REMARK   11  A    between atoms: _27  and  _29
REMARK   12  A    between atoms: _29  and  _30
REMARK   13  A    between atoms: _32  and  _34
REMARK   14  A    between atoms: _34  and  _35
REMARK   15  A    between atoms: _34  and  _37
REMARK   16  A    between atoms: _37  and  _38
REMARK   17  A    between atoms: _43  and  _44
REMARK   18  A    between atoms: _46  and  _48
REMARK   19  A    between atoms: _48  and  _49
REMARK   20  A    between atoms: _48  and  _51
REMARK   21  A    between atoms: _51  and  _52
REMARK   22  A    between atoms: _55  and  _57
REMARK   23  A    between atoms: _57  and  _58
REMARK   24  A    between atoms: _57  and  _60
REMARK   25  A    between atoms: _60  and  _61
REMARK   26  A    between atoms: _67  and  _69
REMARK   27  A    between atoms: _69  and  _70
REMARK   28  A    between atoms: _69  and  _72
REMARK   29  A    between atoms: _72  and  _73
REMARK   30  A    between atoms: _78  and  _79
REMARK   31  A    between atoms: _81  and  _83
REMARK   32  A    between atoms: _83  and  _84
REMARK   33  A    between atoms: _83  and  _86
REMARK   34  A    between atoms: _86  and  _87
REMARK   35  A    between atoms: _90  and  _92
REMARK   36  A    between atoms: _92  and  _93
REMARK   37  A    between atoms: _92  and  _95
REMARK   38  A    between atoms: _95  and  _96
REMARK   39  A    between atoms: _98  and  _100
REMARK   40  A    between atoms: _100  and  _101
REMARK   41  A    between atoms: _100  and  _103
REMARK   42  A    between atoms: _103  and  _104
REMARK   43  A    between atoms: _106  and  _108
REMARK   44  A    between atoms: _108  and  _109
REMARK   45  A    between atoms: _111  and  _113
REMARK   46  A    between atoms: _113  and  _114
REMARK   47  A    between atoms: _116  and  _118
REMARK   48  A    between atoms: _118  and  _119
REMARK   49  A    between atoms: _121  and  _123
REMARK   50  A    between atoms: _123  and  _124
REMARK   51  A    between atoms: _126  and  _128
REMARK   52  A    between atoms: _128  and  _129
REMARK   53  A    between atoms: _128  and  _131
REMARK   54  A    between atoms: _131  and  _132
REMARK   55  A    between atoms: _135  and  _137
REMARK   56  A    between atoms: _137  and  _138
REMARK   57  A    between atoms: _137  and  _140
REMARK   58  A    between atoms: _140  and  _141
REMARK   59  A    between atoms: _141  and  _142
REMARK   60  A    between atoms: _142  and  _143
REMARK   61  A    between atoms: _152  and  _154
REMARK   62  A    between atoms: _154  and  _155
REMARK   63  A    between atoms: _154  and  _157
REMARK   64  A    between atoms: _157  and  _158
REMARK   65  A    between atoms: _161  and  _163
REMARK   66  A    between atoms: _163  and  _164
REMARK   67  A    between atoms: _167  and  _169
REMARK   68  A    between atoms: _169  and  _170
REMARK   69  A    between atoms: _169  and  _172
REMARK   70  A    between atoms: _172  and  _173
REMARK   71  A    between atoms: _176  and  _178
REMARK   72  A    between atoms: _178  and  _179
REMARK   73  A    between atoms: _178  and  _181
REMARK   74  A    between atoms: _181  and  _182
REMARK   75  A    between atoms: _185  and  _187
REMARK   76  A    between atoms: _187  and  _188
REMARK   77  A    between atoms: _191  and  _193
REMARK   78  A    between atoms: _193  and  _194
REMARK   79  A    between atoms: _193  and  _196
REMARK   80  A    between atoms: _196  and  _197
REMARK   81  A    between atoms: _200  and  _202
REMARK   82  A    between atoms: _202  and  _203
REMARK   83  A    between atoms: _202  and  _205
REMARK   84  A    between atoms: _205  and  _206
REMARK   85  A    between atoms: _209  and  _211
REMARK   86  A    between atoms: _211  and  _212
REMARK   87  A    between atoms: _211  and  _214
REMARK   88  A    between atoms: _214  and  _215
REMARK   89  A    between atoms: _220  and  _221
REMARK   90  A    between atoms: _223  and  _225
REMARK   91  A    between atoms: _225  and  _226
REMARK   92  A    between atoms: _225  and  _228
REMARK   93  A    between atoms: _228  and  _229
REMARK   94  A    between atoms: _234  and  _235
REMARK   95  A    between atoms: _237  and  _239
REMARK   96  A    between atoms: _239  and  _240
REMARK   97  A    between atoms: _239  and  _242
REMARK   98  A    between atoms: _242  and  _243
REMARK   99  A    between atoms: _243  and  _244
REMARK  100  A    between atoms: _249  and  _251
REMARK  101  A    between atoms: _251  and  _252
REMARK  102  A    between atoms: _251  and  _254
REMARK  103  A    between atoms: _254  and  _255
REMARK  104  A    between atoms: _255  and  _256
REMARK  105  A    between atoms: _256  and  _257
REMARK  106  A    between atoms: _266  and  _268
REMARK  107  A    between atoms: _268  and  _269
REMARK  108  A    between atoms: _268  and  _271
REMARK  109  A    between atoms: _271  and  _272
REMARK  110  A    between atoms: _277  and  _278
REMARK  111  A    between atoms: _280  and  _282
REMARK  112  A    between atoms: _282  and  _283
REMARK  113  A    between atoms: _282  and  _285
REMARK  114  A    between atoms: _285  and  _286
REMARK  115  A    between atoms: _289  and  _291
REMARK  116  A    between atoms: _291  and  _292
REMARK  117  A    between atoms: _291  and  _294
REMARK  118  A    between atoms: _294  and  _295
REMARK  119  A    between atoms: _305  and  _307
REMARK  120  A    between atoms: _307  and  _308
REMARK  121  A    between atoms: _307  and  _310
REMARK  122  A    between atoms: _310  and  _311
REMARK  123  A    between atoms: _314  and  _316
REMARK  124  A    between atoms: _316  and  _317
REMARK  125  A    between atoms: _316  and  _319
REMARK  126  A    between atoms: _319  and  _320
REMARK  127  A    between atoms: _320  and  _321
REMARK  128  A    between atoms: _324  and  _326
REMARK  129  A    between atoms: _326  and  _327
REMARK  130  A    between atoms: _326  and  _329
REMARK  131  A    between atoms: _329  and  _330
REMARK  132  A    between atoms: _332  and  _334
REMARK  133  A    between atoms: _334  and  _335
REMARK  134  A    between atoms: _334  and  _337
REMARK  135  A    between atoms: _337  and  _338
REMARK  136  A    between atoms: _341  and  _343
REMARK  137  A    between atoms: _343  and  _344
REMARK  138  A    between atoms: _346  and  _348
REMARK  139  A    between atoms: _348  and  _349
REMARK  140  A    between atoms: _348  and  _351
REMARK  141  A    between atoms: _351  and  _352
REMARK  142  A    between atoms: _362  and  _364
REMARK  143  A    between atoms: _364  and  _365
REMARK  144  A    between atoms: _364  and  _367
REMARK  145  A    between atoms: _367  and  _368
REMARK  146  A    between atoms: _368  and  _369
REMARK  147  A    between atoms: _369  and  _370
REMARK  148  A    between atoms: _379  and  _381
REMARK  149  A    between atoms: _381  and  _382
REMARK  150  A    between atoms: _381  and  _384
REMARK  151  A    between atoms: _384  and  _385
REMARK  152  A    between atoms: _385  and  _386
REMARK  153  A    between atoms: _386  and  _387
REMARK  154  A    between atoms: _387  and  _388
REMARK  155  A    between atoms: _392  and  _394
REMARK  156  A    between atoms: _394  and  _395
REMARK  157  A    between atoms: _394  and  _397
REMARK  158  A    between atoms: _397  and  _398
REMARK  159  A    between atoms: _398  and  _399
REMARK  160  A    between atoms: _404  and  _406
REMARK  161  A    between atoms: _406  and  _407
REMARK  162  A    between atoms: _406  and  _409
REMARK  163  A    between atoms: _409  and  _410
REMARK                            x       y       z     vdW  Elec       q    Type
REMARK                         _______ _______ _______ _____ _____    ______ ____
ROOT
ATOM      1  O   HOH     1      19.711   4.420  18.346  0.00  0.00    +0.000 OA
ENDROOT
TORSDOF 0
REMARK  Name = ../refined-set-2016/3ujc/3ujc_pocket.pdb
REMARK  163 active torsions:
REMARK  status: ('A' for Active; 'I' for Inactive)
REMARK    1  A    between atoms: _1  and  _3
REMARK    2  A    between atoms: _3  and  _4
REMARK    3  A    between atoms: _3  and  _6
REMARK    4  A    between atoms: _6  and  _7
REMARK    5  A    between atoms: _7  and  _8
REMARK    6  A    between atoms: _13  and  _15
REMARK    7  A    between atoms: _15  and  _16
REMARK    8  A    between atoms: _15  and  _18
REMARK    9  A    between atoms: _18  and  _19
REMARK   10  A    between atoms: _24  and  _25
REMARK   11  A    between atoms: _27  and  _29
REMARK   12  A    between atoms: _29  and  _30
REMARK   13  A    between atoms: _32  and  _34
REMARK   14  A    between atoms: _34  and  _35
REMARK   15  A    between atoms: _34  and  _37
REMARK   16  A    between atoms: _37  and  _38
REMARK   17  A    between atoms: _43  and  _44
REMARK   18  A    between atoms: _46  and  _48
REMARK   19  A    between atoms: _48  and  _49
REMARK   20  A    between atoms: _48  and  _51
REMARK   21  A    between atoms: _51  and  _52
REMARK   22  A    between atoms: _55  and  _57
REMARK   23  A    between atoms: _57  and  _58
REMARK   24  A    between atoms: _57  and  _60
REMARK   25  A    between atoms: _60  and  _61
REMARK   26  A    between atoms: _67  and  _69
REMARK   27  A    between atoms: _69  and  _70
REMARK   28  A    between atoms: _69  and  _72
REMARK   29  A    between atoms: _72  and  _73
REMARK   30  A    between atoms: _78  and  _79
REMARK   31  A    between atoms: _81  and  _83
REMARK   32  A    between atoms: _83  and  _84
REMARK   33  A    between atoms: _83  and  _86
REMARK   34  A    between atoms: _86  and  _87
REMARK   35  A    between atoms: _90  and  _92
REMARK   36  A    between atoms: _92  and  _93
REMARK   37  A    between atoms: _92  and  _95
REMARK   38  A    between atoms: _95  and  _96
REMARK   39  A    between atoms: _98  and  _100
REMARK   40  A    between atoms: _100  and  _101
REMARK   41  A    between atoms: _100  and  _103
REMARK   42  A    between atoms: _103  and  _104
REMARK   43  A    between atoms: _106  and  _108
REMARK   44  A    between atoms: _108  and  _109
REMARK   45  A    between atoms: _111  and  _113
REMARK   46  A    between atoms: _113  and  _114
REMARK   47  A    between atoms: _116  and  _118
REMARK   48  A    between atoms: _118  and  _119
REMARK   49  A    between atoms: _121  and  _123
REMARK   50  A    between atoms: _123  and  _124
REMARK   51  A    between atoms: _126  and  _128
REMARK   52  A    between atoms: _128  and  _129
REMARK   53  A    between atoms: _128  and  _131
REMARK   54  A    between atoms: _131  and  _132
REMARK   55  A    between atoms: _135  and  _137
REMARK   56  A    between atoms: _137  and  _138
REMARK   57  A    between atoms: _137  and  _140
REMARK   58  A    between atoms: _140  and  _141
REMARK   59  A    between atoms: _141  and  _142
REMARK   60  A    between atoms: _142  and  _143
REMARK   61  A    between atoms: _152  and  _154
REMARK   62  A    between atoms: _154  and  _155
REMARK   63  A    between atoms: _154  and  _157
REMARK   64  A    between atoms: _157  and  _158
REMARK   65  A    between atoms: _161  and  _163
REMARK   66  A    between atoms: _163  and  _164
REMARK   67  A    between atoms: _167  and  _169
REMARK   68  A    between atoms: _169  and  _170
REMARK   69  A    between atoms: _169  and  _172
REMARK   70  A    between atoms: _172  and  _173
REMARK   71  A    between atoms: _176  and  _178
REMARK   72  A    between atoms: _178  and  _179
REMARK   73  A    between atoms: _178  and  _181
REMARK   74  A    between atoms: _181  and  _182
REMARK   75  A    between atoms: _185  and  _187
REMARK   76  A    between atoms: _187  and  _188
REMARK   77  A    between atoms: _191  and  _193
REMARK   78  A    between atoms: _193  and  _194
REMARK   79  A    between atoms: _193  and  _196
REMARK   80  A    between atoms: _196  and  _197
REMARK   81  A    between atoms: _200  and  _202
REMARK   82  A    between atoms: _202  and  _203
REMARK   83  A    between atoms: _202  and  _205
REMARK   84  A    between atoms: _205  and  _206
REMARK   85  A    between atoms: _209  and  _211
REMARK   86  A    between atoms: _211  and  _212
REMARK   87  A    between atoms: _211  and  _214
REMARK   88  A    between atoms: _214  and  _215
REMARK   89  A    between atoms: _220  and  _221
REMARK   90  A    between atoms: _223  and  _225
REMARK   91  A    between atoms: _225  and  _226
REMARK   92  A    between atoms: _225  and  _228
REMARK   93  A    between atoms: _228  and  _229
REMARK   94  A    between atoms: _234  and  _235
REMARK   95  A    between atoms: _237  and  _239
REMARK   96  A    between atoms: _239  and  _240
REMARK   97  A    between atoms: _239  and  _242
REMARK   98  A    between atoms: _242  and  _243
REMARK   99  A    between atoms: _243  and  _244
REMARK  100  A    between atoms: _249  and  _251
REMARK  101  A    between atoms: _251  and  _252
REMARK  102  A    between atoms: _251  and  _254
REMARK  103  A    between atoms: _254  and  _255
REMARK  104  A    between atoms: _255  and  _256
REMARK  105  A    between atoms: _256  and  _257
REMARK  106  A    between atoms: _266  and  _268
REMARK  107  A    between atoms: _268  and  _269
REMARK  108  A    between atoms: _268  and  _271
REMARK  109  A    between atoms: _271  and  _272
REMARK  110  A    between atoms: _277  and  _278
REMARK  111  A    between atoms: _280  and  _282
REMARK  112  A    between atoms: _282  and  _283
REMARK  113  A    between atoms: _282  and  _285
REMARK  114  A    between atoms: _285  and  _286
REMARK  115  A    between atoms: _289  and  _291
REMARK  116  A    between atoms: _291  and  _292
REMARK  117  A    between atoms: _291  and  _294
REMARK  118  A    between atoms: _294  and  _295
REMARK  119  A    between atoms: _305  and  _307
REMARK  120  A    between atoms: _307  and  _308
REMARK  121  A    between atoms: _307  and  _310
REMARK  122  A    between atoms: _310  and  _311
REMARK  123  A    between atoms: _314  and  _316
REMARK  124  A    between atoms: _316  and  _317
REMARK  125  A    between atoms: _316  and  _319
REMARK  126  A    between atoms: _319  and  _320
REMARK  127  A    between atoms: _320  and  _321
REMARK  128  A    between atoms: _324  and  _326
REMARK  129  A    between atoms: _326  and  _327
REMARK  130  A    between atoms: _326  and  _329
REMARK  131  A    between atoms: _329  and  _330
REMARK  132  A    between atoms: _332  and  _334
REMARK  133  A    between atoms: _334  and  _335
REMARK  134  A    between atoms: _334  and  _337
REMARK  135  A    between atoms: _337  and  _338
REMARK  136  A    between atoms: _341  and  _343
REMARK  137  A    between atoms: _343  and  _344
REMARK  138  A    between atoms: _346  and  _348
REMARK  139  A    between atoms: _348  and  _349
REMARK  140  A    between atoms: _348  and  _351
REMARK  141  A    between atoms: _351  and  _352
REMARK  142  A    between atoms: _362  and  _364
REMARK  143  A    between atoms: _364  and  _365
REMARK  144  A    between atoms: _364  and  _367
REMARK  145  A    between atoms: _367  and  _368
REMARK  146  A    between atoms: _368  and  _369
REMARK  147  A    between atoms: _369  and  _370
REMARK  148  A    between atoms: _379  and  _381
REMARK  149  A    between atoms: _381  and  _382
REMARK  150  A    between atoms: _381  and  _384
REMARK  151  A    between atoms: _384  and  _385
REMARK  152  A    between atoms: _385  and  _386
REMARK  153  A    between atoms: _386  and  _387
REMARK  154  A    between atoms: _387  and  _388
REMARK  155  A    between atoms: _392  and  _394
REMARK  156  A    between atoms: _394  and  _395
REMARK  157  A    between atoms: _394  and  _397
REMARK  158  A    between atoms: _397  and  _398
REMARK  159  A    between atoms: _398  and  _399
REMARK  160  A    between atoms: _404  and  _406
REMARK  161  A    between atoms: _406  and  _407
REMARK  162  A    between atoms: _406  and  _409
REMARK  163  A    between atoms: _409  and  _410
REMARK                            x       y       z     vdW  Elec       q    Type
REMARK                         _______ _______ _______ _____ _____    ______ ____
ROOT
ATOM      1  O   HOH     1      21.642   4.487  20.250  0.00  0.00    +0.000 OA
ENDROOT
TORSDOF 0
REMARK  Name = ../refined-set-2016/3ujc/3ujc_pocket.pdb
REMARK  163 active torsions:
REMARK  status: ('A' for Active; 'I' for Inactive)
REMARK    1  A    between atoms: _1  and  _3
REMARK    2  A    between atoms: _3  and  _4
REMARK    3  A    between atoms: _3  and  _6
REMARK    4  A    between atoms: _6  and  _7
REMARK    5  A    between atoms: _7  and  _8
REMARK    6  A    between atoms: _13  and  _15
REMARK    7  A    between atoms: _15  and  _16
REMARK    8  A    between atoms: _15  and  _18
REMARK    9  A    between atoms: _18  and  _19
REMARK   10  A    between atoms: _24  and  _25
REMARK   11  A    between atoms: _27  and  _29
REMARK   12  A    between atoms: _29  and  _30
REMARK   13  A    between atoms: _32  and  _34
REMARK   14  A    between atoms: _34  and  _35
REMARK   15  A    between atoms: _34  and  _37
REMARK   16  A    between atoms: _37  and  _38
REMARK   17  A    between atoms: _43  and  _44
REMARK   18  A    between atoms: _46  and  _48
REMARK   19  A    between atoms: _48  and  _49
REMARK   20  A    between atoms: _48  and  _51
REMARK   21  A    between atoms: _51  and  _52
REMARK   22  A    between atoms: _55  and  _57
REMARK   23  A    between atoms: _57  and  _58
REMARK   24  A    between atoms: _57  and  _60
REMARK   25  A    between atoms: _60  and  _61
REMARK   26  A    between atoms: _67  and  _69
REMARK   27  A    between atoms: _69  and  _70
REMARK   28  A    between atoms: _69  and  _72
REMARK   29  A    between atoms: _72  and  _73
REMARK   30  A    between atoms: _78  and  _79
REMARK   31  A    between atoms: _81  and  _83
REMARK   32  A    between atoms: _83  and  _84
REMARK   33  A    between atoms: _83  and  _86
REMARK   34  A    between atoms: _86  and  _87
REMARK   35  A    between atoms: _90  and  _92
REMARK   36  A    between atoms: _92  and  _93
REMARK   37  A    between atoms: _92  and  _95
REMARK   38  A    between atoms: _95  and  _96
REMARK   39  A    between atoms: _98  and  _100
REMARK   40  A    between atoms: _100  and  _101
REMARK   41  A    between atoms: _100  and  _103
REMARK   42  A    between atoms: _103  and  _104
REMARK   43  A    between atoms: _106  and  _108
REMARK   44  A    between atoms: _108  and  _109
REMARK   45  A    between atoms: _111  and  _113
REMARK   46  A    between atoms: _113  and  _114
REMARK   47  A    between atoms: _116  and  _118
REMARK   48  A    between atoms: _118  and  _119
REMARK   49  A    between atoms: _121  and  _123
REMARK   50  A    between atoms: _123  and  _124
REMARK   51  A    between atoms: _126  and  _128
REMARK   52  A    between atoms: _128  and  _129
REMARK   53  A    between atoms: _128  and  _131
REMARK   54  A    between atoms: _131  and  _132
REMARK   55  A    between atoms: _135  and  _137
REMARK   56  A    between atoms: _137  and  _138
REMARK   57  A    between atoms: _137  and  _140
REMARK   58  A    between atoms: _140  and  _141
REMARK   59  A    between atoms: _141  and  _142
REMARK   60  A    between atoms: _142  and  _143
REMARK   61  A    between atoms: _152  and  _154
REMARK   62  A    between atoms: _154  and  _155
REMARK   63  A    between atoms: _154  and  _157
REMARK   64  A    between atoms: _157  and  _158
REMARK   65  A    between atoms: _161  and  _163
REMARK   66  A    between atoms: _163  and  _164
REMARK   67  A    between atoms: _167  and  _169
REMARK   68  A    between atoms: _169  and  _170
REMARK   69  A    between atoms: _169  and  _172
REMARK   70  A    between atoms: _172  and  _173
REMARK   71  A    between atoms: _176  and  _178
REMARK   72  A    between atoms: _178  and  _179
REMARK   73  A    between atoms: _178  and  _181
REMARK   74  A    between atoms: _181  and  _182
REMARK   75  A    between atoms: _185  and  _187
REMARK   76  A    between atoms: _187  and  _188
REMARK   77  A    between atoms: _191  and  _193
REMARK   78  A    between atoms: _193  and  _194
REMARK   79  A    between atoms: _193  and  _196
REMARK   80  A    between atoms: _196  and  _197
REMARK   81  A    between atoms: _200  and  _202
REMARK   82  A    between atoms: _202  and  _203
REMARK   83  A    between atoms: _202  and  _205
REMARK   84  A    between atoms: _205  and  _206
REMARK   85  A    between atoms: _209  and  _211
REMARK   86  A    between atoms: _211  and  _212
REMARK   87  A    between atoms: _211  and  _214
REMARK   88  A    between atoms: _214  and  _215
REMARK   89  A    between atoms: _220  and  _221
REMARK   90  A    between atoms: _223  and  _225
REMARK   91  A    between atoms: _225  and  _226
REMARK   92  A    between atoms: _225  and  _228
REMARK   93  A    between atoms: _228  and  _229
REMARK   94  A    between atoms: _234  and  _235
REMARK   95  A    between atoms: _237  and  _239
REMARK   96  A    between atoms: _239  and  _240
REMARK   97  A    between atoms: _239  and  _242
REMARK   98  A    between atoms: _242  and  _243
REMARK   99  A    between atoms: _243  and  _244
REMARK  100  A    between atoms: _249  and  _251
REMARK  101  A    between atoms: _251  and  _252
REMARK  102  A    between atoms: _251  and  _254
REMARK  103  A    between atoms: _254  and  _255
REMARK  104  A    between atoms: _255  and  _256
REMARK  105  A    between atoms: _256  and  _257
REMARK  106  A    between atoms: _266  and  _268
REMARK  107  A    between atoms: _268  and  _269
REMARK  108  A    between atoms: _268  and  _271
REMARK  109  A    between atoms: _271  and  _272
REMARK  110  A    between atoms: _277  and  _278
REMARK  111  A    between atoms: _280  and  _282
REMARK  112  A    between atoms: _282  and  _283
REMARK  113  A    between atoms: _282  and  _285
REMARK  114  A    between atoms: _285  and  _286
REMARK  115  A    between atoms: _289  and  _291
REMARK  116  A    between atoms: _291  and  _292
REMARK  117  A    between atoms: _291  and  _294
REMARK  118  A    between atoms: _294  and  _295
REMARK  119  A    between atoms: _305  and  _307
REMARK  120  A    between atoms: _307  and  _308
REMARK  121  A    between atoms: _307  and  _310
REMARK  122  A    between atoms: _310  and  _311
REMARK  123  A    between atoms: _314  and  _316
REMARK  124  A    between atoms: _316  and  _317
REMARK  125  A    between atoms: _316  and  _319
REMARK  126  A    between atoms: _319  and  _320
REMARK  127  A    between atoms: _320  and  _321
REMARK  128  A    between atoms: _324  and  _326
REMARK  129  A    between atoms: _326  and  _327
REMARK  130  A    between atoms: _326  and  _329
REMARK  131  A    between atoms: _329  and  _330
REMARK  132  A    between atoms: _332  and  _334
REMARK  133  A    between atoms: _334  and  _335
REMARK  134  A    between atoms: _334  and  _337
REMARK  135  A    between atoms: _337  and  _338
REMARK  136  A    between atoms: _341  and  _343
REMARK  137  A    between atoms: _343  and  _344
REMARK  138  A    between atoms: _346  and  _348
REMARK  139  A    between atoms: _348  and  _349
REMARK  140  A    between atoms: _348  and  _351
REMARK  141  A    between atoms: _351  and  _352
REMARK  142  A    between atoms: _362  and  _364
REMARK  143  A    between atoms: _364  and  _365
REMARK  144  A    between atoms: _364  and  _367
REMARK  145  A    between atoms: _367  and  _368
REMARK  146  A    between atoms: _368  and  _369
REMARK  147  A    between atoms: _369  and  _370
REMARK  148  A    between atoms: _379  and  _381
REMARK  149  A    between atoms: _381  and  _382
REMARK  150  A    between atoms: _381  and  _384
REMARK  151  A    between atoms: _384  and  _385
REMARK  152  A    between atoms: _385  and  _386
REMARK  153  A    between atoms: _386  and  _387
REMARK  154  A    between atoms: _387  and  _388
REMARK  155  A    between atoms: _392  and  _394
REMARK  156  A    between atoms: _394  and  _395
REMARK  157  A    between atoms: _394  and  _397
REMARK  158  A    between atoms: _397  and  _398
REMARK  159  A    between atoms: _398  and  _399
REMARK  160  A    between atoms: _404  and  _406
REMARK  161  A    between atoms: _406  and  _407
REMARK  162  A    between atoms: _406  and  _409
REMARK  163  A    between atoms: _409  and  _410
REMARK                            x       y       z     vdW  Elec       q    Type
REMARK                         _______ _______ _______ _____ _____    ______ ____
ROOT
ATOM      1  O   HOH     1      12.548   6.359  17.089  0.00  0.00    +0.000 OA
ENDROOT
TORSDOF 0
REMARK  Name = ../refined-set-2016/3ujc/3ujc_pocket.pdb
REMARK  163 active torsions:
REMARK  status: ('A' for Active; 'I' for Inactive)
REMARK    1  A    between atoms: _1  and  _3
REMARK    2  A    between atoms: _3  and  _4
REMARK    3  A    between atoms: _3  and  _6
REMARK    4  A    between atoms: _6  and  _7
REMARK    5  A    between atoms: _7  and  _8
REMARK    6  A    between atoms: _13  and  _15
REMARK    7  A    between atoms: _15  and  _16
REMARK    8  A    between atoms: _15  and  _18
REMARK    9  A    between atoms: _18  and  _19
REMARK   10  A    between atoms: _24  and  _25
REMARK   11  A    between atoms: _27  and  _29
REMARK   12  A    between atoms: _29  and  _30
REMARK   13  A    between atoms: _32  and  _34
REMARK   14  A    between atoms: _34  and  _35
REMARK   15  A    between atoms: _34  and  _37
REMARK   16  A    between atoms: _37  and  _38
REMARK   17  A    between atoms: _43  and  _44
REMARK   18  A    between atoms: _46  and  _48
REMARK   19  A    between atoms: _48  and  _49
REMARK   20  A    between atoms: _48  and  _51
REMARK   21  A    between atoms: _51  and  _52
REMARK   22  A    between atoms: _55  and  _57
REMARK   23  A    between atoms: _57  and  _58
REMARK   24  A    between atoms: _57  and  _60
REMARK   25  A    between atoms: _60  and  _61
REMARK   26  A    between atoms: _67  and  _69
REMARK   27  A    between atoms: _69  and  _70
REMARK   28  A    between atoms: _69  and  _72
REMARK   29  A    between atoms: _72  and  _73
REMARK   30  A    between atoms: _78  and  _79
REMARK   31  A    between atoms: _81  and  _83
REMARK   32  A    between atoms: _83  and  _84
REMARK   33  A    between atoms: _83  and  _86
REMARK   34  A    between atoms: _86  and  _87
REMARK   35  A    between atoms: _90  and  _92
REMARK   36  A    between atoms: _92  and  _93
REMARK   37  A    between atoms: _92  and  _95
REMARK   38  A    between atoms: _95  and  _96
REMARK   39  A    between atoms: _98  and  _100
REMARK   40  A    between atoms: _100  and  _101
REMARK   41  A    between atoms: _100  and  _103
REMARK   42  A    between atoms: _103  and  _104
REMARK   43  A    between atoms: _106  and  _108
REMARK   44  A    between atoms: _108  and  _109
REMARK   45  A    between atoms: _111  and  _113
REMARK   46  A    between atoms: _113  and  _114
REMARK   47  A    between atoms: _116  and  _118
REMARK   48  A    between atoms: _118  and  _119
REMARK   49  A    between atoms: _121  and  _123
REMARK   50  A    between atoms: _123  and  _124
REMARK   51  A    between atoms: _126  and  _128
REMARK   52  A    between atoms: _128  and  _129
REMARK   53  A    between atoms: _128  and  _131
REMARK   54  A    between atoms: _131  and  _132
REMARK   55  A    between atoms: _135  and  _137
REMARK   56  A    between atoms: _137  and  _138
REMARK   57  A    between atoms: _137  and  _140
REMARK   58  A    between atoms: _140  and  _141
REMARK   59  A    between atoms: _141  and  _142
REMARK   60  A    between atoms: _142  and  _143
REMARK   61  A    between atoms: _152  and  _154
REMARK   62  A    between atoms: _154  and  _155
REMARK   63  A    between atoms: _154  and  _157
REMARK   64  A    between atoms: _157  and  _158
REMARK   65  A    between atoms: _161  and  _163
REMARK   66  A    between atoms: _163  and  _164
REMARK   67  A    between atoms: _167  and  _169
REMARK   68  A    between atoms: _169  and  _170
REMARK   69  A    between atoms: _169  and  _172
REMARK   70  A    between atoms: _172  and  _173
REMARK   71  A    between atoms: _176  and  _178
REMARK   72  A    between atoms: _178  and  _179
REMARK   73  A    between atoms: _178  and  _181
REMARK   74  A    between atoms: _181  and  _182
REMARK   75  A    between atoms: _185  and  _187
REMARK   76  A    between atoms: _187  and  _188
REMARK   77  A    between atoms: _191  and  _193
REMARK   78  A    between atoms: _193  and  _194
REMARK   79  A    between atoms: _193  and  _196
REMARK   80  A    between atoms: _196  and  _197
REMARK   81  A    between atoms: _200  and  _202
REMARK   82  A    between atoms: _202  and  _203
REMARK   83  A    between atoms: _202  and  _205
REMARK   84  A    between atoms: _205  and  _206
REMARK   85  A    between atoms: _209  and  _211
REMARK   86  A    between atoms: _211  and  _212
REMARK   87  A    between atoms: _211  and  _214
REMARK   88  A    between atoms: _214  and  _215
REMARK   89  A    between atoms: _220  and  _221
REMARK   90  A    between atoms: _223  and  _225
REMARK   91  A    between atoms: _225  and  _226
REMARK   92  A    between atoms: _225  and  _228
REMARK   93  A    between atoms: _228  and  _229
REMARK   94  A    between atoms: _234  and  _235
REMARK   95  A    between atoms: _237  and  _239
REMARK   96  A    between atoms: _239  and  _240
REMARK   97  A    between atoms: _239  and  _242
REMARK   98  A    between atoms: _242  and  _243
REMARK   99  A    between atoms: _243  and  _244
REMARK  100  A    between atoms: _249  and  _251
REMARK  101  A    between atoms: _251  and  _252
REMARK  102  A    between atoms: _251  and  _254
REMARK  103  A    between atoms: _254  and  _255
REMARK  104  A    between atoms: _255  and  _256
REMARK  105  A    between atoms: _256  and  _257
REMARK  106  A    between atoms: _266  and  _268
REMARK  107  A    between atoms: _268  and  _269
REMARK  108  A    between atoms: _268  and  _271
REMARK  109  A    between atoms: _271  and  _272
REMARK  110  A    between atoms: _277  and  _278
REMARK  111  A    between atoms: _280  and  _282
REMARK  112  A    between atoms: _282  and  _283
REMARK  113  A    between atoms: _282  and  _285
REMARK  114  A    between atoms: _285  and  _286
REMARK  115  A    between atoms: _289  and  _291
REMARK  116  A    between atoms: _291  and  _292
REMARK  117  A    between atoms: _291  and  _294
REMARK  118  A    between atoms: _294  and  _295
REMARK  119  A    between atoms: _305  and  _307
REMARK  120  A    between atoms: _307  and  _308
REMARK  121  A    between atoms: _307  and  _310
REMARK  122  A    between atoms: _310  and  _311
REMARK  123  A    between atoms: _314  and  _316
REMARK  124  A    between atoms: _316  and  _317
REMARK  125  A    between atoms: _316  and  _319
REMARK  126  A    between atoms: _319  and  _320
REMARK  127  A    between atoms: _320  and  _321
REMARK  128  A    between atoms: _324  and  _326
REMARK  129  A    between atoms: _326  and  _327
REMARK  130  A    between atoms: _326  and  _329
REMARK  131  A    between atoms: _329  and  _330
REMARK  132  A    between atoms: _332  and  _334
REMARK  133  A    between atoms: _334  and  _335
REMARK  134  A    between atoms: _334  and  _337
REMARK  135  A    between atoms: _337  and  _338
REMARK  136  A    between atoms: _341  and  _343
REMARK  137  A    between atoms: _343  and  _344
REMARK  138  A    between atoms: _346  and  _348
REMARK  139  A    between atoms: _348  and  _349
REMARK  140  A    between atoms: _348  and  _351
REMARK  141  A    between atoms: _351  and  _352
REMARK  142  A    between atoms: _362  and  _364
REMARK  143  A    between atoms: _364  and  _365
REMARK  144  A    between atoms: _364  and  _367
REMARK  145  A    between atoms: _367  and  _368
REMARK  146  A    between atoms: _368  and  _369
REMARK  147  A    between atoms: _369  and  _370
REMARK  148  A    between atoms: _379  and  _381
REMARK  149  A    between atoms: _381  and  _382
REMARK  150  A    between atoms: _381  and  _384
REMARK  151  A    between atoms: _384  and  _385
REMARK  152  A    between atoms: _385  and  _386
REMARK  153  A    between atoms: _386  and  _387
REMARK  154  A    between atoms: _387  and  _388
REMARK  155  A    between atoms: _392  and  _394
REMARK  156  A    between atoms: _394  and  _395
REMARK  157  A    between atoms: _394  and  _397
REMARK  158  A    between atoms: _397  and  _398
REMARK  159  A    between atoms: _398  and  _399
REMARK  160  A    between atoms: _404  and  _406
REMARK  161  A    between atoms: _406  and  _407
REMARK  162  A    between atoms: _406  and  _409
REMARK  163  A    between atoms: _409  and  _410
REMARK                            x       y       z     vdW  Elec       q    Type
REMARK                         _______ _______ _______ _____ _____    ______ ____
ROOT
ATOM      1  O   HOH     1      11.615   2.480  18.860  0.00  0.00    +0.000 OA
ENDROOT
TORSDOF 0
REMARK  Name = ../refined-set-2016/3ujc/3ujc_pocket.pdb
REMARK  163 active torsions:
REMARK  status: ('A' for Active; 'I' for Inactive)
REMARK    1  A    between atoms: _1  and  _3
REMARK    2  A    between atoms: _3  and  _4
REMARK    3  A    between atoms: _3  and  _6
REMARK    4  A    between atoms: _6  and  _7
REMARK    5  A    between atoms: _7  and  _8
REMARK    6  A    between atoms: _13  and  _15
REMARK    7  A    between atoms: _15  and  _16
REMARK    8  A    between atoms: _15  and  _18
REMARK    9  A    between atoms: _18  and  _19
REMARK   10  A    between atoms: _24  and  _25
REMARK   11  A    between atoms: _27  and  _29
REMARK   12  A    between atoms: _29  and  _30
REMARK   13  A    between atoms: _32  and  _34
REMARK   14  A    between atoms: _34  and  _35
REMARK   15  A    between atoms: _34  and  _37
REMARK   16  A    between atoms: _37  and  _38
REMARK   17  A    between atoms: _43  and  _44
REMARK   18  A    between atoms: _46  and  _48
REMARK   19  A    between atoms: _48  and  _49
REMARK   20  A    between atoms: _48  and  _51
REMARK   21  A    between atoms: _51  and  _52
REMARK   22  A    between atoms: _55  and  _57
REMARK   23  A    between atoms: _57  and  _58
REMARK   24  A    between atoms: _57  and  _60
REMARK   25  A    between atoms: _60  and  _61
REMARK   26  A    between atoms: _67  and  _69
REMARK   27  A    between atoms: _69  and  _70
REMARK   28  A    between atoms: _69  and  _72
REMARK   29  A    between atoms: _72  and  _73
REMARK   30  A    between atoms: _78  and  _79
REMARK   31  A    between atoms: _81  and  _83
REMARK   32  A    between atoms: _83  and  _84
REMARK   33  A    between atoms: _83  and  _86
REMARK   34  A    between atoms: _86  and  _87
REMARK   35  A    between atoms: _90  and  _92
REMARK   36  A    between atoms: _92  and  _93
REMARK   37  A    between atoms: _92  and  _95
REMARK   38  A    between atoms: _95  and  _96
REMARK   39  A    between atoms: _98  and  _100
REMARK   40  A    between atoms: _100  and  _101
REMARK   41  A    between atoms: _100  and  _103
REMARK   42  A    between atoms: _103  and  _104
REMARK   43  A    between atoms: _106  and  _108
REMARK   44  A    between atoms: _108  and  _109
REMARK   45  A    between atoms: _111  and  _113
REMARK   46  A    between atoms: _113  and  _114
REMARK   47  A    between atoms: _116  and  _118
REMARK   48  A    between atoms: _118  and  _119
REMARK   49  A    between atoms: _121  and  _123
REMARK   50  A    between atoms: _123  and  _124
REMARK   51  A    between atoms: _126  and  _128
REMARK   52  A    between atoms: _128  and  _129
REMARK   53  A    between atoms: _128  and  _131
REMARK   54  A    between atoms: _131  and  _132
REMARK   55  A    between atoms: _135  and  _137
REMARK   56  A    between atoms: _137  and  _138
REMARK   57  A    between atoms: _137  and  _140
REMARK   58  A    between atoms: _140  and  _141
REMARK   59  A    between atoms: _141  and  _142
REMARK   60  A    between atoms: _142  and  _143
REMARK   61  A    between atoms: _152  and  _154
REMARK   62  A    between atoms: _154  and  _155
REMARK   63  A    between atoms: _154  and  _157
REMARK   64  A    between atoms: _157  and  _158
REMARK   65  A    between atoms: _161  and  _163
REMARK   66  A    between atoms: _163  and  _164
REMARK   67  A    between atoms: _167  and  _169
REMARK   68  A    between atoms: _169  and  _170
REMARK   69  A    between atoms: _169  and  _172
REMARK   70  A    between atoms: _172  and  _173
REMARK   71  A    between atoms: _176  and  _178
REMARK   72  A    between atoms: _178  and  _179
REMARK   73  A    between atoms: _178  and  _181
REMARK   74  A    between atoms: _181  and  _182
REMARK   75  A    between atoms: _185  and  _187
REMARK   76  A    between atoms: _187  and  _188
REMARK   77  A    between atoms: _191  and  _193
REMARK   78  A    between atoms: _193  and  _194
REMARK   79  A    between atoms: _193  and  _196
REMARK   80  A    between atoms: _196  and  _197
REMARK   81  A    between atoms: _200  and  _202
REMARK   82  A    between atoms: _202  and  _203
REMARK   83  A    between atoms: _202  and  _205
REMARK   84  A    between atoms: _205  and  _206
REMARK   85  A    between atoms: _209  and  _211
REMARK   86  A    between atoms: _211  and  _212
REMARK   87  A    between atoms: _211  and  _214
REMARK   88  A    between atoms: _214  and  _215
REMARK   89  A    between atoms: _220  and  _221
REMARK   90  A    between atoms: _223  and  _225
REMARK   91  A    between atoms: _225  and  _226
REMARK   92  A    between atoms: _225  and  _228
REMARK   93  A    between atoms: _228  and  _229
REMARK   94  A    between atoms: _234  and  _235
REMARK   95  A    between atoms: _237  and  _239
REMARK   96  A    between atoms: _239  and  _240
REMARK   97  A    between atoms: _239  and  _242
REMARK   98  A    between atoms: _242  and  _243
REMARK   99  A    between atoms: _243  and  _244
REMARK  100  A    between atoms: _249  and  _251
REMARK  101  A    between atoms: _251  and  _252
REMARK  102  A    between atoms: _251  and  _254
REMARK  103  A    between atoms: _254  and  _255
REMARK  104  A    between atoms: _255  and  _256
REMARK  105  A    between atoms: _256  and  _257
REMARK  106  A    between atoms: _266  and  _268
REMARK  107  A    between atoms: _268  and  _269
REMARK  108  A    between atoms: _268  and  _271
REMARK  109  A    between atoms: _271  and  _272
REMARK  110  A    between atoms: _277  and  _278
REMARK  111  A    between atoms: _280  and  _282
REMARK  112  A    between atoms: _282  and  _283
REMARK  113  A    between atoms: _282  and  _285
REMARK  114  A    between atoms: _285  and  _286
REMARK  115  A    between atoms: _289  and  _291
REMARK  116  A    between atoms: _291  and  _292
REMARK  117  A    between atoms: _291  and  _294
REMARK  118  A    between atoms: _294  and  _295
REMARK  119  A    between atoms: _305  and  _307
REMARK  120  A    between atoms: _307  and  _308
REMARK  121  A    between atoms: _307  and  _310
REMARK  122  A    between atoms: _310  and  _311
REMARK  123  A    between atoms: _314  and  _316
REMARK  124  A    between atoms: _316  and  _317
REMARK  125  A    between atoms: _316  and  _319
REMARK  126  A    between atoms: _319  and  _320
REMARK  127  A    between atoms: _320  and  _321
REMARK  128  A    between atoms: _324  and  _326
REMARK  129  A    between atoms: _326  and  _327
REMARK  130  A    between atoms: _326  and  _329
REMARK  131  A    between atoms: _329  and  _330
REMARK  132  A    between atoms: _332  and  _334
REMARK  133  A    between atoms: _334  and  _335
REMARK  134  A    between atoms: _334  and  _337
REMARK  135  A    between atoms: _337  and  _338
REMARK  136  A    between atoms: _341  and  _343
REMARK  137  A    between atoms: _343  and  _344
REMARK  138  A    between atoms: _346  and  _348
REMARK  139  A    between atoms: _348  and  _349
REMARK  140  A    between atoms: _348  and  _351
REMARK  141  A    between atoms: _351  and  _352
REMARK  142  A    between atoms: _362  and  _364
REMARK  143  A    between atoms: _364  and  _365
REMARK  144  A    between atoms: _364  and  _367
REMARK  145  A    between atoms: _367  and  _368
REMARK  146  A    between atoms: _368  and  _369
REMARK  147  A    between atoms: _369  and  _370
REMARK  148  A    between atoms: _379  and  _381
REMARK  149  A    between atoms: _381  and  _382
REMARK  150  A    between atoms: _381  and  _384
REMARK  151  A    between atoms: _384  and  _385
REMARK  152  A    between atoms: _385  and  _386
REMARK  153  A    between atoms: _386  and  _387
REMARK  154  A    between atoms: _387  and  _388
REMARK  155  A    between atoms: _392  and  _394
REMARK  156  A    between atoms: _394  and  _395
REMARK  157  A    between atoms: _394  and  _397
REMARK  158  A    between atoms: _397  and  _398
REMARK  159  A    between atoms: _398  and  _399
REMARK  160  A    between atoms: _404  and  _406
REMARK  161  A    between atoms: _406  and  _407
REMARK  162  A    between atoms: _406  and  _409
REMARK  163  A    between atoms: _409  and  _410
REMARK                            x       y       z     vdW  Elec       q    Type
REMARK                         _______ _______ _______ _____ _____    ______ ____
ROOT
ATOM      1  O   HOH     1      14.380   5.889  14.508  0.00  0.00    +0.000 OA
ENDROOT
TORSDOF 0
REMARK  Name = ../refined-set-2016/3ujc/3ujc_pocket.pdb
REMARK  163 active torsions:
REMARK  status: ('A' for Active; 'I' for Inactive)
REMARK    1  A    between atoms: _1  and  _3
REMARK    2  A    between atoms: _3  and  _4
REMARK    3  A    between atoms: _3  and  _6
REMARK    4  A    between atoms: _6  and  _7
REMARK    5  A    between atoms: _7  and  _8
REMARK    6  A    between atoms: _13  and  _15
REMARK    7  A    between atoms: _15  and  _16
REMARK    8  A    between atoms: _15  and  _18
REMARK    9  A    between atoms: _18  and  _19
REMARK   10  A    between atoms: _24  and  _25
REMARK   11  A    between atoms: _27  and  _29
REMARK   12  A    between atoms: _29  and  _30
REMARK   13  A    between atoms: _32  and  _34
REMARK   14  A    between atoms: _34  and  _35
REMARK   15  A    between atoms: _34  and  _37
REMARK   16  A    between atoms: _37  and  _38
REMARK   17  A    between atoms: _43  and  _44
REMARK   18  A    between atoms: _46  and  _48
REMARK   19  A    between atoms: _48  and  _49
REMARK   20  A    between atoms: _48  and  _51
REMARK   21  A    between atoms: _51  and  _52
REMARK   22  A    between atoms: _55  and  _57
REMARK   23  A    between atoms: _57  and  _58
REMARK   24  A    between atoms: _57  and  _60
REMARK   25  A    between atoms: _60  and  _61
REMARK   26  A    between atoms: _67  and  _69
REMARK   27  A    between atoms: _69  and  _70
REMARK   28  A    between atoms: _69  and  _72
REMARK   29  A    between atoms: _72  and  _73
REMARK   30  A    between atoms: _78  and  _79
REMARK   31  A    between atoms: _81  and  _83
REMARK   32  A    between atoms: _83  and  _84
REMARK   33  A    between atoms: _83  and  _86
REMARK   34  A    between atoms: _86  and  _87
REMARK   35  A    between atoms: _90  and  _92
REMARK   36  A    between atoms: _92  and  _93
REMARK   37  A    between atoms: _92  and  _95
REMARK   38  A    between atoms: _95  and  _96
REMARK   39  A    between atoms: _98  and  _100
REMARK   40  A    between atoms: _100  and  _101
REMARK   41  A    between atoms: _100  and  _103
REMARK   42  A    between atoms: _103  and  _104
REMARK   43  A    between atoms: _106  and  _108
REMARK   44  A    between atoms: _108  and  _109
REMARK   45  A    between atoms: _111  and  _113
REMARK   46  A    between atoms: _113  and  _114
REMARK   47  A    between atoms: _116  and  _118
REMARK   48  A    between atoms: _118  and  _119
REMARK   49  A    between atoms: _121  and  _123
REMARK   50  A    between atoms: _123  and  _124
REMARK   51  A    between atoms: _126  and  _128
REMARK   52  A    between atoms: _128  and  _129
REMARK   53  A    between atoms: _128  and  _131
REMARK   54  A    between atoms: _131  and  _132
REMARK   55  A    between atoms: _135  and  _137
REMARK   56  A    between atoms: _137  and  _138
REMARK   57  A    between atoms: _137  and  _140
REMARK   58  A    between atoms: _140  and  _141
REMARK   59  A    between atoms: _141  and  _142
REMARK   60  A    between atoms: _142  and  _143
REMARK   61  A    between atoms: _152  and  _154
REMARK   62  A    between atoms: _154  and  _155
REMARK   63  A    between atoms: _154  and  _157
REMARK   64  A    between atoms: _157  and  _158
REMARK   65  A    between atoms: _161  and  _163
REMARK   66  A    between atoms: _163  and  _164
REMARK   67  A    between atoms: _167  and  _169
REMARK   68  A    between atoms: _169  and  _170
REMARK   69  A    between atoms: _169  and  _172
REMARK   70  A    between atoms: _172  and  _173
REMARK   71  A    between atoms: _176  and  _178
REMARK   72  A    between atoms: _178  and  _179
REMARK   73  A    between atoms: _178  and  _181
REMARK   74  A    between atoms: _181  and  _182
REMARK   75  A    between atoms: _185  and  _187
REMARK   76  A    between atoms: _187  and  _188
REMARK   77  A    between atoms: _191  and  _193
REMARK   78  A    between atoms: _193  and  _194
REMARK   79  A    between atoms: _193  and  _196
REMARK   80  A    between atoms: _196  and  _197
REMARK   81  A    between atoms: _200  and  _202
REMARK   82  A    between atoms: _202  and  _203
REMARK   83  A    between atoms: _202  and  _205
REMARK   84  A    between atoms: _205  and  _206
REMARK   85  A    between atoms: _209  and  _211
REMARK   86  A    between atoms: _211  and  _212
REMARK   87  A    between atoms: _211  and  _214
REMARK   88  A    between atoms: _214  and  _215
REMARK   89  A    between atoms: _220  and  _221
REMARK   90  A    between atoms: _223  and  _225
REMARK   91  A    between atoms: _225  and  _226
REMARK   92  A    between atoms: _225  and  _228
REMARK   93  A    between atoms: _228  and  _229
REMARK   94  A    between atoms: _234  and  _235
REMARK   95  A    between atoms: _237  and  _239
REMARK   96  A    between atoms: _239  and  _240
REMARK   97  A    between atoms: _239  and  _242
REMARK   98  A    between atoms: _242  and  _243
REMARK   99  A    between atoms: _243  and  _244
REMARK  100  A    between atoms: _249  and  _251
REMARK  101  A    between atoms: _251  and  _252
REMARK  102  A    between atoms: _251  and  _254
REMARK  103  A    between atoms: _254  and  _255
REMARK  104  A    between atoms: _255  and  _256
REMARK  105  A    between atoms: _256  and  _257
REMARK  106  A    between atoms: _266  and  _268
REMARK  107  A    between atoms: _268  and  _269
REMARK  108  A    between atoms: _268  and  _271
REMARK  109  A    between atoms: _271  and  _272
REMARK  110  A    between atoms: _277  and  _278
REMARK  111  A    between atoms: _280  and  _282
REMARK  112  A    between atoms: _282  and  _283
REMARK  113  A    between atoms: _282  and  _285
REMARK  114  A    between atoms: _285  and  _286
REMARK  115  A    between atoms: _289  and  _291
REMARK  116  A    between atoms: _291  and  _292
REMARK  117  A    between atoms: _291  and  _294
REMARK  118  A    between atoms: _294  and  _295
REMARK  119  A    between atoms: _305  and  _307
REMARK  120  A    between atoms: _307  and  _308
REMARK  121  A    between atoms: _307  and  _310
REMARK  122  A    between atoms: _310  and  _311
REMARK  123  A    between atoms: _314  and  _316
REMARK  124  A    between atoms: _316  and  _317
REMARK  125  A    between atoms: _316  and  _319
REMARK  126  A    between atoms: _319  and  _320
REMARK  127  A    between atoms: _320  and  _321
REMARK  128  A    between atoms: _324  and  _326
REMARK  129  A    between atoms: _326  and  _327
REMARK  130  A    between atoms: _326  and  _329
REMARK  131  A    between atoms: _329  and  _330
REMARK  132  A    between atoms: _332  and  _334
REMARK  133  A    between atoms: _334  and  _335
REMARK  134  A    between atoms: _334  and  _337
REMARK  135  A    between atoms: _337  and  _338
REMARK  136  A    between atoms: _341  and  _343
REMARK  137  A    between atoms: _343  and  _344
REMARK  138  A    between atoms: _346  and  _348
REMARK  139  A    between atoms: _348  and  _349
REMARK  140  A    between atoms: _348  and  _351
REMARK  141  A    between atoms: _351  and  _352
REMARK  142  A    between atoms: _362  and  _364
REMARK  143  A    between atoms: _364  and  _365
REMARK  144  A    between atoms: _364  and  _367
REMARK  145  A    between atoms: _367  and  _368
REMARK  146  A    between atoms: _368  and  _369
REMARK  147  A    between atoms: _369  and  _370
REMARK  148  A    between atoms: _379  and  _381
REMARK  149  A    between atoms: _381  and  _382
REMARK  150  A    between atoms: _381  and  _384
REMARK  151  A    between atoms: _384  and  _385
REMARK  152  A    between atoms: _385  and  _386
REMARK  153  A    between atoms: _386  and  _387
REMARK  154  A    between atoms: _387  and  _388
REMARK  155  A    between atoms: _392  and  _394
REMARK  156  A    between atoms: _394  and  _395
REMARK  157  A    between atoms: _394  and  _397
REMARK  158  A    between atoms: _397  and  _398
REMARK  159  A    between atoms: _398  and  _399
REMARK  160  A    between atoms: _404  and  _406
REMARK  161  A    between atoms: _406  and  _407
REMARK  162  A    between atoms: _406  and  _409
REMARK  163  A    between atoms: _409  and  _410
REMARK                            x       y       z     vdW  Elec       q    Type
REMARK                         _______ _______ _______ _____ _____    ______ ____
ROOT
ATOM      1  O   HOH     1      13.614   2.856  23.589  0.00  0.00    +0.000 OA
ENDROOT
TORSDOF 0
