REMARK  Name = ../refined-set-2016/3f7i/3f7i_pocket.pdb
REMARK  123 active torsions:
REMARK  status: ('A' for Active; 'I' for Inactive)
REMARK    1  A    between atoms: _1  and  _3
REMARK    2  A    between atoms: _3  and  _4
REMARK    3  A    between atoms: _3  and  _6
REMARK    4  A    between atoms: _9  and  _11
REMARK    5  A    between atoms: _11  and  _12
REMARK    6  A    between atoms: _11  and  _14
REMARK    7  A    between atoms: _14  and  _15
REMARK    8  A    between atoms: _18  and  _20
REMARK    9  A    between atoms: _20  and  _21
REMARK   10  A    between atoms: _20  and  _23
REMARK   11  A    between atoms: _23  and  _24
REMARK   12  A    between atoms: _30  and  _32
REMARK   13  A    between atoms: _32  and  _33
REMARK   14  A    between atoms: _32  and  _35
REMARK   15  A    between atoms: _35  and  _36
REMARK   16  A    between atoms: _42  and  _44
REMARK   17  A    between atoms: _44  and  _45
REMARK   18  A    between atoms: _44  and  _47
REMARK   19  A    between atoms: _47  and  _48
REMARK   20  A    between atoms: _51  and  _53
REMARK   21  A    between atoms: _53  and  _54
REMARK   22  A    between atoms: _53  and  _56
REMARK   23  A    between atoms: _56  and  _57
REMARK   24  A    between atoms: _62  and  _64
REMARK   25  A    between atoms: _64  and  _65
REMARK   26  A    between atoms: _64  and  _67
REMARK   27  A    between atoms: _67  and  _68
REMARK   28  A    between atoms: _68  and  _69
REMARK   29  A    between atoms: _74  and  _76
REMARK   30  A    between atoms: _76  and  _77
REMARK   31  A    between atoms: _76  and  _79
REMARK   32  A    between atoms: _79  and  _80
REMARK   33  A    between atoms: _83  and  _85
REMARK   34  A    between atoms: _85  and  _86
REMARK   35  A    between atoms: _85  and  _88
REMARK   36  A    between atoms: _88  and  _89
REMARK   37  A    between atoms: _89  and  _90
REMARK   38  A    between atoms: _90  and  _91
REMARK   39  A    between atoms: _91  and  _92
REMARK   40  A    between atoms: _96  and  _98
REMARK   41  A    between atoms: _98  and  _99
REMARK   42  A    between atoms: _98  and  _101
REMARK   43  A    between atoms: _104  and  _106
REMARK   44  A    between atoms: _106  and  _107
REMARK   45  A    between atoms: _106  and  _109
REMARK   46  A    between atoms: _109  and  _110
REMARK   47  A    between atoms: _110  and  _111
REMARK   48  A    between atoms: _111  and  _112
REMARK   49  A    between atoms: _121  and  _123
REMARK   50  A    between atoms: _123  and  _124
REMARK   51  A    between atoms: _123  and  _126
REMARK   52  A    between atoms: _128  and  _130
REMARK   53  A    between atoms: _130  and  _131
REMARK   54  A    between atoms: _130  and  _133
REMARK   55  A    between atoms: _133  and  _134
REMARK   56  A    between atoms: _139  and  _140
REMARK   57  A    between atoms: _142  and  _144
REMARK   58  A    between atoms: _144  and  _145
REMARK   59  A    between atoms: _147  and  _149
REMARK   60  A    between atoms: _149  and  _150
REMARK   61  A    between atoms: _152  and  _154
REMARK   62  A    between atoms: _154  and  _155
REMARK   63  A    between atoms: _154  and  _157
REMARK   64  A    between atoms: _157  and  _158
REMARK   65  A    between atoms: _161  and  _163
REMARK   66  A    between atoms: _163  and  _164
REMARK   67  A    between atoms: _163  and  _166
REMARK   68  A    between atoms: _166  and  _167
REMARK   69  A    between atoms: _167  and  _168
REMARK   70  A    between atoms: _173  and  _175
REMARK   71  A    between atoms: _175  and  _176
REMARK   72  A    between atoms: _175  and  _178
REMARK   73  A    between atoms: _178  and  _179
REMARK   74  A    between atoms: _181  and  _183
REMARK   75  A    between atoms: _183  and  _184
REMARK   76  A    between atoms: _183  and  _186
REMARK   77  A    between atoms: _186  and  _187
REMARK   78  A    between atoms: _197  and  _199
REMARK   79  A    between atoms: _199  and  _200
REMARK   80  A    between atoms: _199  and  _202
REMARK   81  A    between atoms: _202  and  _203
REMARK   82  A    between atoms: _203  and  _204
REMARK   83  A    between atoms: _204  and  _205
REMARK   84  A    between atoms: _205  and  _206
REMARK   85  A    between atoms: _210  and  _212
REMARK   86  A    between atoms: _212  and  _213
REMARK   87  A    between atoms: _212  and  _215
REMARK   88  A    between atoms: _215  and  _216
REMARK   89  A    between atoms: _216  and  _217
REMARK   90  A    between atoms: _217  and  _218
REMARK   91  A    between atoms: _227  and  _229
REMARK   92  A    between atoms: _229  and  _230
REMARK   93  A    between atoms: _229  and  _232
REMARK   94  A    between atoms: _232  and  _233
REMARK   95  A    between atoms: _236  and  _238
REMARK   96  A    between atoms: _238  and  _239
REMARK   97  A    between atoms: _238  and  _241
REMARK   98  A    between atoms: _241  and  _242
REMARK   99  A    between atoms: _246  and  _247
REMARK  100  A    between atoms: _252  and  _254
REMARK  101  A    between atoms: _254  and  _255
REMARK  102  A    between atoms: _254  and  _257
REMARK  103  A    between atoms: _257  and  _258
REMARK  104  A    between atoms: _258  and  _259
REMARK  105  A    between atoms: _262  and  _264
REMARK  106  A    between atoms: _264  and  _265
REMARK  107  A    between atoms: _264  and  _267
REMARK  108  A    between atoms: _267  and  _268
REMARK  109  A    between atoms: _273  and  _275
REMARK  110  A    between atoms: _275  and  _276
REMARK  111  A    between atoms: _275  and  _278
REMARK  112  A    between atoms: _278  and  _279
REMARK  113  A    between atoms: _279  and  _280
REMARK  114  A    between atoms: _280  and  _281
REMARK  115  A    between atoms: _281  and  _282
REMARK  116  A    between atoms: _286  and  _288
REMARK  117  A    between atoms: _288  and  _289
REMARK  118  A    between atoms: _288  and  _291
REMARK  119  A    between atoms: _291  and  _292
REMARK  120  A    between atoms: _302  and  _304
REMARK  121  A    between atoms: _304  and  _305
REMARK  122  A    between atoms: _304  and  _307
REMARK  123  A    between atoms: _307  and  _308
REMARK                            x       y       z     vdW  Elec       q    Type
REMARK                         _______ _______ _______ _____ _____    ______ ____
ROOT
ATOM      1  CA  VAL A   1      89.746  58.861  24.535  0.00  0.00    +0.133 C 
ENDROOT
BRANCH   1   2
ATOM      2  CB  VAL A   1      88.530  59.135  23.615  0.00  0.00    +0.023 C 
ATOM      3  CG2 VAL A   1      88.404  60.632  23.329  0.00  0.00    +0.002 C 
ATOM      4  CG1 VAL A   1      88.656  58.356  22.311  0.00  0.00    +0.002 C 
ENDBRANCH   1   2
BRANCH   1   5
ATOM      5  N   VAL A   1      89.942  57.434  24.770  0.00  0.00    -0.239 NA
ATOM      6  H   VAL A   1      89.367  56.966  25.499  0.00  0.00    +0.142 HD
ENDBRANCH   1   5
BRANCH   1   7
ATOM      7  C   VAL A   1      89.532  59.529  25.893  0.00  0.00    +0.224 C 
ATOM      8  O   VAL A   1      88.412  59.544  26.405  0.00  0.00    -0.287 OA
ENDBRANCH   1   7
TORSDOF 3
REMARK  Name = ../refined-set-2016/3f7i/3f7i_pocket.pdb
REMARK  123 active torsions:
REMARK  status: ('A' for Active; 'I' for Inactive)
REMARK    1  A    between atoms: _1  and  _3
REMARK    2  A    between atoms: _3  and  _4
REMARK    3  A    between atoms: _3  and  _6
REMARK    4  A    between atoms: _9  and  _11
REMARK    5  A    between atoms: _11  and  _12
REMARK    6  A    between atoms: _11  and  _14
REMARK    7  A    between atoms: _14  and  _15
REMARK    8  A    between atoms: _18  and  _20
REMARK    9  A    between atoms: _20  and  _21
REMARK   10  A    between atoms: _20  and  _23
REMARK   11  A    between atoms: _23  and  _24
REMARK   12  A    between atoms: _30  and  _32
REMARK   13  A    between atoms: _32  and  _33
REMARK   14  A    between atoms: _32  and  _35
REMARK   15  A    between atoms: _35  and  _36
REMARK   16  A    between atoms: _42  and  _44
REMARK   17  A    between atoms: _44  and  _45
REMARK   18  A    between atoms: _44  and  _47
REMARK   19  A    between atoms: _47  and  _48
REMARK   20  A    between atoms: _51  and  _53
REMARK   21  A    between atoms: _53  and  _54
REMARK   22  A    between atoms: _53  and  _56
REMARK   23  A    between atoms: _56  and  _57
REMARK   24  A    between atoms: _62  and  _64
REMARK   25  A    between atoms: _64  and  _65
REMARK   26  A    between atoms: _64  and  _67
REMARK   27  A    between atoms: _67  and  _68
REMARK   28  A    between atoms: _68  and  _69
REMARK   29  A    between atoms: _74  and  _76
REMARK   30  A    between atoms: _76  and  _77
REMARK   31  A    between atoms: _76  and  _79
REMARK   32  A    between atoms: _79  and  _80
REMARK   33  A    between atoms: _83  and  _85
REMARK   34  A    between atoms: _85  and  _86
REMARK   35  A    between atoms: _85  and  _88
REMARK   36  A    between atoms: _88  and  _89
REMARK   37  A    between atoms: _89  and  _90
REMARK   38  A    between atoms: _90  and  _91
REMARK   39  A    between atoms: _91  and  _92
REMARK   40  A    between atoms: _96  and  _98
REMARK   41  A    between atoms: _98  and  _99
REMARK   42  A    between atoms: _98  and  _101
REMARK   43  A    between atoms: _104  and  _106
REMARK   44  A    between atoms: _106  and  _107
REMARK   45  A    between atoms: _106  and  _109
REMARK   46  A    between atoms: _109  and  _110
REMARK   47  A    between atoms: _110  and  _111
REMARK   48  A    between atoms: _111  and  _112
REMARK   49  A    between atoms: _121  and  _123
REMARK   50  A    between atoms: _123  and  _124
REMARK   51  A    between atoms: _123  and  _126
REMARK   52  A    between atoms: _128  and  _130
REMARK   53  A    between atoms: _130  and  _131
REMARK   54  A    between atoms: _130  and  _133
REMARK   55  A    between atoms: _133  and  _134
REMARK   56  A    between atoms: _139  and  _140
REMARK   57  A    between atoms: _142  and  _144
REMARK   58  A    between atoms: _144  and  _145
REMARK   59  A    between atoms: _147  and  _149
REMARK   60  A    between atoms: _149  and  _150
REMARK   61  A    between atoms: _152  and  _154
REMARK   62  A    between atoms: _154  and  _155
REMARK   63  A    between atoms: _154  and  _157
REMARK   64  A    between atoms: _157  and  _158
REMARK   65  A    between atoms: _161  and  _163
REMARK   66  A    between atoms: _163  and  _164
REMARK   67  A    between atoms: _163  and  _166
REMARK   68  A    between atoms: _166  and  _167
REMARK   69  A    between atoms: _167  and  _168
REMARK   70  A    between atoms: _173  and  _175
REMARK   71  A    between atoms: _175  and  _176
REMARK   72  A    between atoms: _175  and  _178
REMARK   73  A    between atoms: _178  and  _179
REMARK   74  A    between atoms: _181  and  _183
REMARK   75  A    between atoms: _183  and  _184
REMARK   76  A    between atoms: _183  and  _186
REMARK   77  A    between atoms: _186  and  _187
REMARK   78  A    between atoms: _197  and  _199
REMARK   79  A    between atoms: _199  and  _200
REMARK   80  A    between atoms: _199  and  _202
REMARK   81  A    between atoms: _202  and  _203
REMARK   82  A    between atoms: _203  and  _204
REMARK   83  A    between atoms: _204  and  _205
REMARK   84  A    between atoms: _205  and  _206
REMARK   85  A    between atoms: _210  and  _212
REMARK   86  A    between atoms: _212  and  _213
REMARK   87  A    between atoms: _212  and  _215
REMARK   88  A    between atoms: _215  and  _216
REMARK   89  A    between atoms: _216  and  _217
REMARK   90  A    between atoms: _217  and  _218
REMARK   91  A    between atoms: _227  and  _229
REMARK   92  A    between atoms: _229  and  _230
REMARK   93  A    between atoms: _229  and  _232
REMARK   94  A    between atoms: _232  and  _233
REMARK   95  A    between atoms: _236  and  _238
REMARK   96  A    between atoms: _238  and  _239
REMARK   97  A    between atoms: _238  and  _241
REMARK   98  A    between atoms: _241  and  _242
REMARK   99  A    between atoms: _246  and  _247
REMARK  100  A    between atoms: _252  and  _254
REMARK  101  A    between atoms: _254  and  _255
REMARK  102  A    between atoms: _254  and  _257
REMARK  103  A    between atoms: _257  and  _258
REMARK  104  A    between atoms: _258  and  _259
REMARK  105  A    between atoms: _262  and  _264
REMARK  106  A    between atoms: _264  and  _265
REMARK  107  A    between atoms: _264  and  _267
REMARK  108  A    between atoms: _267  and  _268
REMARK  109  A    between atoms: _273  and  _275
REMARK  110  A    between atoms: _275  and  _276
REMARK  111  A    between atoms: _275  and  _278
REMARK  112  A    between atoms: _278  and  _279
REMARK  113  A    between atoms: _279  and  _280
REMARK  114  A    between atoms: _280  and  _281
REMARK  115  A    between atoms: _281  and  _282
REMARK  116  A    between atoms: _286  and  _288
REMARK  117  A    between atoms: _288  and  _289
REMARK  118  A    between atoms: _288  and  _291
REMARK  119  A    between atoms: _291  and  _292
REMARK  120  A    between atoms: _302  and  _304
REMARK  121  A    between atoms: _304  and  _305
REMARK  122  A    between atoms: _304  and  _307
REMARK  123  A    between atoms: _307  and  _308
REMARK                            x       y       z     vdW  Elec       q    Type
REMARK                         _______ _______ _______ _____ _____    ______ ____
ROOT
ATOM      1  CA  LEU A   1      87.393  65.828  25.782  0.00  0.00    +0.133 C 
ENDROOT
BRANCH   1   2
ATOM      2  N   LEU A   1      88.735  65.490  26.264  0.00  0.00    -0.239 NA
ATOM      3  H   LEU A   1      88.882  64.587  26.758  0.00  0.00    +0.142 HD
ENDBRANCH   1   2
BRANCH   1   4
ATOM      4  C   LEU A   1      86.866  67.102  26.444  0.00  0.00    +0.224 C 
ATOM      5  O   LEU A   1      86.394  68.011  25.755  0.00  0.00    -0.287 OA
ENDBRANCH   1   4
BRANCH   1   6
ATOM      6  CB  LEU A   1      86.420  64.667  26.008  0.00  0.00    +0.025 C 
BRANCH   6   7
ATOM      7  CG  LEU A   1      86.646  63.448  25.093  0.00  0.00    +0.002 C 
ATOM      8  CD2 LEU A   1      86.146  62.167  25.730  0.00  0.00    +0.000 C 
ATOM      9  CD1 LEU A   1      85.989  63.657  23.735  0.00  0.00    +0.000 C 
ENDBRANCH   6   7
ENDBRANCH   1   6
TORSDOF 4
REMARK  Name = ../refined-set-2016/3f7i/3f7i_pocket.pdb
REMARK  123 active torsions:
REMARK  status: ('A' for Active; 'I' for Inactive)
REMARK    1  A    between atoms: _1  and  _3
REMARK    2  A    between atoms: _3  and  _4
REMARK    3  A    between atoms: _3  and  _6
REMARK    4  A    between atoms: _9  and  _11
REMARK    5  A    between atoms: _11  and  _12
REMARK    6  A    between atoms: _11  and  _14
REMARK    7  A    between atoms: _14  and  _15
REMARK    8  A    between atoms: _18  and  _20
REMARK    9  A    between atoms: _20  and  _21
REMARK   10  A    between atoms: _20  and  _23
REMARK   11  A    between atoms: _23  and  _24
REMARK   12  A    between atoms: _30  and  _32
REMARK   13  A    between atoms: _32  and  _33
REMARK   14  A    between atoms: _32  and  _35
REMARK   15  A    between atoms: _35  and  _36
REMARK   16  A    between atoms: _42  and  _44
REMARK   17  A    between atoms: _44  and  _45
REMARK   18  A    between atoms: _44  and  _47
REMARK   19  A    between atoms: _47  and  _48
REMARK   20  A    between atoms: _51  and  _53
REMARK   21  A    between atoms: _53  and  _54
REMARK   22  A    between atoms: _53  and  _56
REMARK   23  A    between atoms: _56  and  _57
REMARK   24  A    between atoms: _62  and  _64
REMARK   25  A    between atoms: _64  and  _65
REMARK   26  A    between atoms: _64  and  _67
REMARK   27  A    between atoms: _67  and  _68
REMARK   28  A    between atoms: _68  and  _69
REMARK   29  A    between atoms: _74  and  _76
REMARK   30  A    between atoms: _76  and  _77
REMARK   31  A    between atoms: _76  and  _79
REMARK   32  A    between atoms: _79  and  _80
REMARK   33  A    between atoms: _83  and  _85
REMARK   34  A    between atoms: _85  and  _86
REMARK   35  A    between atoms: _85  and  _88
REMARK   36  A    between atoms: _88  and  _89
REMARK   37  A    between atoms: _89  and  _90
REMARK   38  A    between atoms: _90  and  _91
REMARK   39  A    between atoms: _91  and  _92
REMARK   40  A    between atoms: _96  and  _98
REMARK   41  A    between atoms: _98  and  _99
REMARK   42  A    between atoms: _98  and  _101
REMARK   43  A    between atoms: _104  and  _106
REMARK   44  A    between atoms: _106  and  _107
REMARK   45  A    between atoms: _106  and  _109
REMARK   46  A    between atoms: _109  and  _110
REMARK   47  A    between atoms: _110  and  _111
REMARK   48  A    between atoms: _111  and  _112
REMARK   49  A    between atoms: _121  and  _123
REMARK   50  A    between atoms: _123  and  _124
REMARK   51  A    between atoms: _123  and  _126
REMARK   52  A    between atoms: _128  and  _130
REMARK   53  A    between atoms: _130  and  _131
REMARK   54  A    between atoms: _130  and  _133
REMARK   55  A    between atoms: _133  and  _134
REMARK   56  A    between atoms: _139  and  _140
REMARK   57  A    between atoms: _142  and  _144
REMARK   58  A    between atoms: _144  and  _145
REMARK   59  A    between atoms: _147  and  _149
REMARK   60  A    between atoms: _149  and  _150
REMARK   61  A    between atoms: _152  and  _154
REMARK   62  A    between atoms: _154  and  _155
REMARK   63  A    between atoms: _154  and  _157
REMARK   64  A    between atoms: _157  and  _158
REMARK   65  A    between atoms: _161  and  _163
REMARK   66  A    between atoms: _163  and  _164
REMARK   67  A    between atoms: _163  and  _166
REMARK   68  A    between atoms: _166  and  _167
REMARK   69  A    between atoms: _167  and  _168
REMARK   70  A    between atoms: _173  and  _175
REMARK   71  A    between atoms: _175  and  _176
REMARK   72  A    between atoms: _175  and  _178
REMARK   73  A    between atoms: _178  and  _179
REMARK   74  A    between atoms: _181  and  _183
REMARK   75  A    between atoms: _183  and  _184
REMARK   76  A    between atoms: _183  and  _186
REMARK   77  A    between atoms: _186  and  _187
REMARK   78  A    between atoms: _197  and  _199
REMARK   79  A    between atoms: _199  and  _200
REMARK   80  A    between atoms: _199  and  _202
REMARK   81  A    between atoms: _202  and  _203
REMARK   82  A    between atoms: _203  and  _204
REMARK   83  A    between atoms: _204  and  _205
REMARK   84  A    between atoms: _205  and  _206
REMARK   85  A    between atoms: _210  and  _212
REMARK   86  A    between atoms: _212  and  _213
REMARK   87  A    between atoms: _212  and  _215
REMARK   88  A    between atoms: _215  and  _216
REMARK   89  A    between atoms: _216  and  _217
REMARK   90  A    between atoms: _217  and  _218
REMARK   91  A    between atoms: _227  and  _229
REMARK   92  A    between atoms: _229  and  _230
REMARK   93  A    between atoms: _229  and  _232
REMARK   94  A    between atoms: _232  and  _233
REMARK   95  A    between atoms: _236  and  _238
REMARK   96  A    between atoms: _238  and  _239
REMARK   97  A    between atoms: _238  and  _241
REMARK   98  A    between atoms: _241  and  _242
REMARK   99  A    between atoms: _246  and  _247
REMARK  100  A    between atoms: _252  and  _254
REMARK  101  A    between atoms: _254  and  _255
REMARK  102  A    between atoms: _254  and  _257
REMARK  103  A    between atoms: _257  and  _258
REMARK  104  A    between atoms: _258  and  _259
REMARK  105  A    between atoms: _262  and  _264
REMARK  106  A    between atoms: _264  and  _265
REMARK  107  A    between atoms: _264  and  _267
REMARK  108  A    between atoms: _267  and  _268
REMARK  109  A    between atoms: _273  and  _275
REMARK  110  A    between atoms: _275  and  _276
REMARK  111  A    between atoms: _275  and  _278
REMARK  112  A    between atoms: _278  and  _279
REMARK  113  A    between atoms: _279  and  _280
REMARK  114  A    between atoms: _280  and  _281
REMARK  115  A    between atoms: _281  and  _282
REMARK  116  A    between atoms: _286  and  _288
REMARK  117  A    between atoms: _288  and  _289
REMARK  118  A    between atoms: _288  and  _291
REMARK  119  A    between atoms: _291  and  _292
REMARK  120  A    between atoms: _302  and  _304
REMARK  121  A    between atoms: _304  and  _305
REMARK  122  A    between atoms: _304  and  _307
REMARK  123  A    between atoms: _307  and  _308
REMARK                            x       y       z     vdW  Elec       q    Type
REMARK                         _______ _______ _______ _____ _____    ______ ____
ROOT
ATOM      1  C   PHE A   1      82.463  68.059  26.594  0.00  0.00    +0.239 C 
ATOM      2  O   PHE A   1      83.289  67.962  27.506  0.00  0.00    -0.274 OA
ATOM      3  N   PHE A   2      81.172  67.769  26.737  0.00  0.00    -0.298 N 
ATOM      4  H   PHE A   2      80.507  68.061  25.992  0.00  0.00    +0.150 HD
ENDROOT
BRANCH   1   5
ATOM      5  CA  PHE A   1      82.882  68.525  25.207  0.00  0.00    +0.149 C 
BRANCH   5   6
ATOM      6  N   PHE A   1      83.896  69.581  25.249  0.00  0.00    -0.238 NA
ATOM      7  H   PHE A   1      84.899  69.317  25.326  0.00  0.00    +0.142 HD
ENDBRANCH   5   6
BRANCH   5   8
ATOM      8  CB  PHE A   1      83.377  67.312  24.408  0.00  0.00    +0.053 C 
BRANCH   8   9
ATOM      9  CG  PHE A   1      83.701  67.620  22.976  0.00  0.00    -0.020 A 
ATOM     10  CD2 PHE A   1      85.017  67.617  22.527  0.00  0.00    -0.004 A 
ATOM     11  CE2 PHE A   1      85.314  67.901  21.194  0.00  0.00    -0.000 A 
ATOM     12  CZ  PHE A   1      84.292  68.202  20.303  0.00  0.00    -0.000 A 
ATOM     13  CE1 PHE A   1      82.979  68.205  20.740  0.00  0.00    -0.000 A 
ATOM     14  CD1 PHE A   1      82.690  67.919  22.072  0.00  0.00    -0.004 A 
ENDBRANCH   8   9
ENDBRANCH   5   8
ENDBRANCH   1   5
BRANCH   3  15
ATOM     15  CA  PHE A   2      80.655  67.056  27.902  0.00  0.00    +0.141 C 
BRANCH  15  16
ATOM     16  C   PHE A   2      80.005  65.763  27.426  0.00  0.00    +0.227 C 
ATOM     17  O   PHE A   2      79.557  65.673  26.280  0.00  0.00    -0.286 OA
ENDBRANCH  15  16
BRANCH  15  18
ATOM     18  CB  PHE A   2      79.647  67.914  28.681  0.00  0.00    +0.054 C 
BRANCH  18  19
ATOM     19  CG  PHE A   2      78.442  68.331  27.873  0.00  0.00    -0.020 A 
ATOM     20  CD2 PHE A   2      77.336  67.497  27.769  0.00  0.00    -0.004 A 
ATOM     21  CE2 PHE A   2      76.221  67.878  27.030  0.00  0.00    -0.000 A 
ATOM     22  CZ  PHE A   2      76.208  69.098  26.380  0.00  0.00    -0.000 A 
ATOM     23  CE1 PHE A   2      77.311  69.944  26.474  0.00  0.00    -0.000 A 
ATOM     24  CD1 PHE A   2      78.417  69.558  27.219  0.00  0.00    -0.004 A 
ENDBRANCH  18  19
ENDBRANCH  15  18
ENDBRANCH   3  15
TORSDOF 8
REMARK  Name = ../refined-set-2016/3f7i/3f7i_pocket.pdb
REMARK  123 active torsions:
REMARK  status: ('A' for Active; 'I' for Inactive)
REMARK    1  A    between atoms: _1  and  _3
REMARK    2  A    between atoms: _3  and  _4
REMARK    3  A    between atoms: _3  and  _6
REMARK    4  A    between atoms: _9  and  _11
REMARK    5  A    between atoms: _11  and  _12
REMARK    6  A    between atoms: _11  and  _14
REMARK    7  A    between atoms: _14  and  _15
REMARK    8  A    between atoms: _18  and  _20
REMARK    9  A    between atoms: _20  and  _21
REMARK   10  A    between atoms: _20  and  _23
REMARK   11  A    between atoms: _23  and  _24
REMARK   12  A    between atoms: _30  and  _32
REMARK   13  A    between atoms: _32  and  _33
REMARK   14  A    between atoms: _32  and  _35
REMARK   15  A    between atoms: _35  and  _36
REMARK   16  A    between atoms: _42  and  _44
REMARK   17  A    between atoms: _44  and  _45
REMARK   18  A    between atoms: _44  and  _47
REMARK   19  A    between atoms: _47  and  _48
REMARK   20  A    between atoms: _51  and  _53
REMARK   21  A    between atoms: _53  and  _54
REMARK   22  A    between atoms: _53  and  _56
REMARK   23  A    between atoms: _56  and  _57
REMARK   24  A    between atoms: _62  and  _64
REMARK   25  A    between atoms: _64  and  _65
REMARK   26  A    between atoms: _64  and  _67
REMARK   27  A    between atoms: _67  and  _68
REMARK   28  A    between atoms: _68  and  _69
REMARK   29  A    between atoms: _74  and  _76
REMARK   30  A    between atoms: _76  and  _77
REMARK   31  A    between atoms: _76  and  _79
REMARK   32  A    between atoms: _79  and  _80
REMARK   33  A    between atoms: _83  and  _85
REMARK   34  A    between atoms: _85  and  _86
REMARK   35  A    between atoms: _85  and  _88
REMARK   36  A    between atoms: _88  and  _89
REMARK   37  A    between atoms: _89  and  _90
REMARK   38  A    between atoms: _90  and  _91
REMARK   39  A    between atoms: _91  and  _92
REMARK   40  A    between atoms: _96  and  _98
REMARK   41  A    between atoms: _98  and  _99
REMARK   42  A    between atoms: _98  and  _101
REMARK   43  A    between atoms: _104  and  _106
REMARK   44  A    between atoms: _106  and  _107
REMARK   45  A    between atoms: _106  and  _109
REMARK   46  A    between atoms: _109  and  _110
REMARK   47  A    between atoms: _110  and  _111
REMARK   48  A    between atoms: _111  and  _112
REMARK   49  A    between atoms: _121  and  _123
REMARK   50  A    between atoms: _123  and  _124
REMARK   51  A    between atoms: _123  and  _126
REMARK   52  A    between atoms: _128  and  _130
REMARK   53  A    between atoms: _130  and  _131
REMARK   54  A    between atoms: _130  and  _133
REMARK   55  A    between atoms: _133  and  _134
REMARK   56  A    between atoms: _139  and  _140
REMARK   57  A    between atoms: _142  and  _144
REMARK   58  A    between atoms: _144  and  _145
REMARK   59  A    between atoms: _147  and  _149
REMARK   60  A    between atoms: _149  and  _150
REMARK   61  A    between atoms: _152  and  _154
REMARK   62  A    between atoms: _154  and  _155
REMARK   63  A    between atoms: _154  and  _157
REMARK   64  A    between atoms: _157  and  _158
REMARK   65  A    between atoms: _161  and  _163
REMARK   66  A    between atoms: _163  and  _164
REMARK   67  A    between atoms: _163  and  _166
REMARK   68  A    between atoms: _166  and  _167
REMARK   69  A    between atoms: _167  and  _168
REMARK   70  A    between atoms: _173  and  _175
REMARK   71  A    between atoms: _175  and  _176
REMARK   72  A    between atoms: _175  and  _178
REMARK   73  A    between atoms: _178  and  _179
REMARK   74  A    between atoms: _181  and  _183
REMARK   75  A    between atoms: _183  and  _184
REMARK   76  A    between atoms: _183  and  _186
REMARK   77  A    between atoms: _186  and  _187
REMARK   78  A    between atoms: _197  and  _199
REMARK   79  A    between atoms: _199  and  _200
REMARK   80  A    between atoms: _199  and  _202
REMARK   81  A    between atoms: _202  and  _203
REMARK   82  A    between atoms: _203  and  _204
REMARK   83  A    between atoms: _204  and  _205
REMARK   84  A    between atoms: _205  and  _206
REMARK   85  A    between atoms: _210  and  _212
REMARK   86  A    between atoms: _212  and  _213
REMARK   87  A    between atoms: _212  and  _215
REMARK   88  A    between atoms: _215  and  _216
REMARK   89  A    between atoms: _216  and  _217
REMARK   90  A    between atoms: _217  and  _218
REMARK   91  A    between atoms: _227  and  _229
REMARK   92  A    between atoms: _229  and  _230
REMARK   93  A    between atoms: _229  and  _232
REMARK   94  A    between atoms: _232  and  _233
REMARK   95  A    between atoms: _236  and  _238
REMARK   96  A    between atoms: _238  and  _239
REMARK   97  A    between atoms: _238  and  _241
REMARK   98  A    between atoms: _241  and  _242
REMARK   99  A    between atoms: _246  and  _247
REMARK  100  A    between atoms: _252  and  _254
REMARK  101  A    between atoms: _254  and  _255
REMARK  102  A    between atoms: _254  and  _257
REMARK  103  A    between atoms: _257  and  _258
REMARK  104  A    between atoms: _258  and  _259
REMARK  105  A    between atoms: _262  and  _264
REMARK  106  A    between atoms: _264  and  _265
REMARK  107  A    between atoms: _264  and  _267
REMARK  108  A    between atoms: _267  and  _268
REMARK  109  A    between atoms: _273  and  _275
REMARK  110  A    between atoms: _275  and  _276
REMARK  111  A    between atoms: _275  and  _278
REMARK  112  A    between atoms: _278  and  _279
REMARK  113  A    between atoms: _279  and  _280
REMARK  114  A    between atoms: _280  and  _281
REMARK  115  A    between atoms: _281  and  _282
REMARK  116  A    between atoms: _286  and  _288
REMARK  117  A    between atoms: _288  and  _289
REMARK  118  A    between atoms: _288  and  _291
REMARK  119  A    between atoms: _291  and  _292
REMARK  120  A    between atoms: _302  and  _304
REMARK  121  A    between atoms: _304  and  _305
REMARK  122  A    between atoms: _304  and  _307
REMARK  123  A    between atoms: _307  and  _308
REMARK                            x       y       z     vdW  Elec       q    Type
REMARK                         _______ _______ _______ _____ _____    ______ ____
ROOT
ATOM      1  CA  THR A   1      75.604  63.255  27.223  0.00  0.00    +0.160 C 
ENDROOT
BRANCH   1   2
ATOM      2  N   THR A   1      77.061  63.213  27.164  0.00  0.00    -0.237 NA
ATOM      3  H   THR A   1      77.528  62.853  26.307  0.00  0.00    +0.142 HD
ENDBRANCH   1   2
BRANCH   1   4
ATOM      4  C   THR A   1      75.046  62.210  28.184  0.00  0.00    +0.227 C 
ATOM      5  O   THR A   1      73.907  62.321  28.622  0.00  0.00    -0.287 OA
ENDBRANCH   1   4
BRANCH   1   6
ATOM      6  CB  THR A   1      74.950  63.031  25.841  0.00  0.00    +0.134 C 
ATOM      7  CG2 THR A   1      75.495  64.004  24.809  0.00  0.00    +0.034 C 
BRANCH   6   8
ATOM      8  OG1 THR A   1      75.171  61.681  25.417  0.00  0.00    -0.383 OA
ATOM      9  HG1 THR A   1      76.144  61.512  25.352  0.00  0.00    +0.210 HD
ENDBRANCH   6   8
ENDBRANCH   1   6
TORSDOF 4
REMARK  Name = ../refined-set-2016/3f7i/3f7i_pocket.pdb
REMARK  123 active torsions:
REMARK  status: ('A' for Active; 'I' for Inactive)
REMARK    1  A    between atoms: _1  and  _3
REMARK    2  A    between atoms: _3  and  _4
REMARK    3  A    between atoms: _3  and  _6
REMARK    4  A    between atoms: _9  and  _11
REMARK    5  A    between atoms: _11  and  _12
REMARK    6  A    between atoms: _11  and  _14
REMARK    7  A    between atoms: _14  and  _15
REMARK    8  A    between atoms: _18  and  _20
REMARK    9  A    between atoms: _20  and  _21
REMARK   10  A    between atoms: _20  and  _23
REMARK   11  A    between atoms: _23  and  _24
REMARK   12  A    between atoms: _30  and  _32
REMARK   13  A    between atoms: _32  and  _33
REMARK   14  A    between atoms: _32  and  _35
REMARK   15  A    between atoms: _35  and  _36
REMARK   16  A    between atoms: _42  and  _44
REMARK   17  A    between atoms: _44  and  _45
REMARK   18  A    between atoms: _44  and  _47
REMARK   19  A    between atoms: _47  and  _48
REMARK   20  A    between atoms: _51  and  _53
REMARK   21  A    between atoms: _53  and  _54
REMARK   22  A    between atoms: _53  and  _56
REMARK   23  A    between atoms: _56  and  _57
REMARK   24  A    between atoms: _62  and  _64
REMARK   25  A    between atoms: _64  and  _65
REMARK   26  A    between atoms: _64  and  _67
REMARK   27  A    between atoms: _67  and  _68
REMARK   28  A    between atoms: _68  and  _69
REMARK   29  A    between atoms: _74  and  _76
REMARK   30  A    between atoms: _76  and  _77
REMARK   31  A    between atoms: _76  and  _79
REMARK   32  A    between atoms: _79  and  _80
REMARK   33  A    between atoms: _83  and  _85
REMARK   34  A    between atoms: _85  and  _86
REMARK   35  A    between atoms: _85  and  _88
REMARK   36  A    between atoms: _88  and  _89
REMARK   37  A    between atoms: _89  and  _90
REMARK   38  A    between atoms: _90  and  _91
REMARK   39  A    between atoms: _91  and  _92
REMARK   40  A    between atoms: _96  and  _98
REMARK   41  A    between atoms: _98  and  _99
REMARK   42  A    between atoms: _98  and  _101
REMARK   43  A    between atoms: _104  and  _106
REMARK   44  A    between atoms: _106  and  _107
REMARK   45  A    between atoms: _106  and  _109
REMARK   46  A    between atoms: _109  and  _110
REMARK   47  A    between atoms: _110  and  _111
REMARK   48  A    between atoms: _111  and  _112
REMARK   49  A    between atoms: _121  and  _123
REMARK   50  A    between atoms: _123  and  _124
REMARK   51  A    between atoms: _123  and  _126
REMARK   52  A    between atoms: _128  and  _130
REMARK   53  A    between atoms: _130  and  _131
REMARK   54  A    between atoms: _130  and  _133
REMARK   55  A    between atoms: _133  and  _134
REMARK   56  A    between atoms: _139  and  _140
REMARK   57  A    between atoms: _142  and  _144
REMARK   58  A    between atoms: _144  and  _145
REMARK   59  A    between atoms: _147  and  _149
REMARK   60  A    between atoms: _149  and  _150
REMARK   61  A    between atoms: _152  and  _154
REMARK   62  A    between atoms: _154  and  _155
REMARK   63  A    between atoms: _154  and  _157
REMARK   64  A    between atoms: _157  and  _158
REMARK   65  A    between atoms: _161  and  _163
REMARK   66  A    between atoms: _163  and  _164
REMARK   67  A    between atoms: _163  and  _166
REMARK   68  A    between atoms: _166  and  _167
REMARK   69  A    between atoms: _167  and  _168
REMARK   70  A    between atoms: _173  and  _175
REMARK   71  A    between atoms: _175  and  _176
REMARK   72  A    between atoms: _175  and  _178
REMARK   73  A    between atoms: _178  and  _179
REMARK   74  A    between atoms: _181  and  _183
REMARK   75  A    between atoms: _183  and  _184
REMARK   76  A    between atoms: _183  and  _186
REMARK   77  A    between atoms: _186  and  _187
REMARK   78  A    between atoms: _197  and  _199
REMARK   79  A    between atoms: _199  and  _200
REMARK   80  A    between atoms: _199  and  _202
REMARK   81  A    between atoms: _202  and  _203
REMARK   82  A    between atoms: _203  and  _204
REMARK   83  A    between atoms: _204  and  _205
REMARK   84  A    between atoms: _205  and  _206
REMARK   85  A    between atoms: _210  and  _212
REMARK   86  A    between atoms: _212  and  _213
REMARK   87  A    between atoms: _212  and  _215
REMARK   88  A    between atoms: _215  and  _216
REMARK   89  A    between atoms: _216  and  _217
REMARK   90  A    between atoms: _217  and  _218
REMARK   91  A    between atoms: _227  and  _229
REMARK   92  A    between atoms: _229  and  _230
REMARK   93  A    between atoms: _229  and  _232
REMARK   94  A    between atoms: _232  and  _233
REMARK   95  A    between atoms: _236  and  _238
REMARK   96  A    between atoms: _238  and  _239
REMARK   97  A    between atoms: _238  and  _241
REMARK   98  A    between atoms: _241  and  _242
REMARK   99  A    between atoms: _246  and  _247
REMARK  100  A    between atoms: _252  and  _254
REMARK  101  A    between atoms: _254  and  _255
REMARK  102  A    between atoms: _254  and  _257
REMARK  103  A    between atoms: _257  and  _258
REMARK  104  A    between atoms: _258  and  _259
REMARK  105  A    between atoms: _262  and  _264
REMARK  106  A    between atoms: _264  and  _265
REMARK  107  A    between atoms: _264  and  _267
REMARK  108  A    between atoms: _267  and  _268
REMARK  109  A    between atoms: _273  and  _275
REMARK  110  A    between atoms: _275  and  _276
REMARK  111  A    between atoms: _275  and  _278
REMARK  112  A    between atoms: _278  and  _279
REMARK  113  A    between atoms: _279  and  _280
REMARK  114  A    between atoms: _280  and  _281
REMARK  115  A    between atoms: _281  and  _282
REMARK  116  A    between atoms: _286  and  _288
REMARK  117  A    between atoms: _288  and  _289
REMARK  118  A    between atoms: _288  and  _291
REMARK  119  A    between atoms: _291  and  _292
REMARK  120  A    between atoms: _302  and  _304
REMARK  121  A    between atoms: _304  and  _305
REMARK  122  A    between atoms: _304  and  _307
REMARK  123  A    between atoms: _307  and  _308
REMARK                            x       y       z     vdW  Elec       q    Type
REMARK                         _______ _______ _______ _____ _____    ______ ____
ROOT
ATOM      1  CA  LYS A   4      77.929  60.639  22.634  0.00  0.00    +0.149 C 
ENDROOT
BRANCH   1   2
ATOM      2  C   LYS A   4      78.372  61.791  23.518  0.00  0.00    +0.241 C 
ATOM      3  O   LYS A   4      78.060  61.823  24.712  0.00  0.00    -0.273 OA
ATOM      4  N   VAL A   5      79.106  62.728  22.924  0.00  0.00    -0.297 N 
ATOM      5  H   VAL A   5      79.412  62.575  21.942  0.00  0.00    +0.150 HD
BRANCH   4   6
ATOM      6  CA  VAL A   5      79.496  63.956  23.592  0.00  0.00    +0.149 C 
BRANCH   6   7
ATOM      7  C   VAL A   5      79.011  65.161  22.794  0.00  0.00    +0.241 C 
ATOM      8  N   ARG A   6      79.037  66.326  23.428  0.00  0.00    -0.297 N 
ATOM      9  H   ARG A   6      79.392  66.367  24.405  0.00  0.00    +0.150 HD
ATOM     10  O   VAL A   5      78.630  65.038  21.628  0.00  0.00    -0.273 OA
BRANCH   8  11
ATOM     11  CA  ARG A   6      78.579  67.548  22.785  0.00  0.00    +0.149 C 
BRANCH  11  12
ATOM     12  C   ARG A   6      79.356  68.760  23.275  0.00  0.00    +0.241 C 
ATOM     13  O   ARG A   6      79.687  68.863  24.454  0.00  0.00    -0.273 OA
ATOM     14  N   CYS A   7      79.639  69.675  22.357  0.00  0.00    -0.297 N 
ATOM     15  H   CYS A   7      79.357  69.507  21.370  0.00  0.00    +0.150 HD
BRANCH  14  16
ATOM     16  CA  CYS A   7      80.334  70.906  22.696  0.00  0.00    +0.149 C 
BRANCH  16  17
ATOM     17  C   CYS A   7      79.349  71.902  23.280  0.00  0.00    +0.228 C 
ATOM     18  O   CYS A   7      78.282  72.127  22.714  0.00  0.00    -0.286 OA
ENDBRANCH  16  17
BRANCH  16  19
ATOM     19  CB  CYS A   7      81.010  71.491  21.464  0.00  0.00    +0.096 C 
ATOM     20  SG  CYS A   7      81.696  73.143  21.694  0.00  0.00    -0.080 S 
ENDBRANCH  16  19
ENDBRANCH  14  16
ENDBRANCH  11  12
BRANCH  11  21
ATOM     21  CB  ARG A   6      77.091  67.752  23.042  0.00  0.00    +0.033 C 
BRANCH  21  22
ATOM     22  CG  ARG A   6      76.456  68.752  22.116  0.00  0.00    +0.045 C 
BRANCH  22  23
ATOM     23  CD  ARG A   6      74.981  68.928  22.412  0.00  0.00    +0.174 C 
BRANCH  23  24
ATOM     24  NE  ARG A   6      74.190  67.720  22.169  0.00  0.00    -0.265 N 
ATOM     25  HE  ARG A   6      73.916  67.149  22.994  0.00  0.00    +0.259 HD
ATOM     26  CZ  ARG A   6      73.796  67.299  20.968  0.00  0.00    +0.342 C 
ATOM     27  NH2 ARG A   6      73.064  66.201  20.869  0.00  0.00    -0.292 N 
ATOM     28 HH21 ARG A   6      72.800  65.673  21.725  0.00  0.00    +0.255 HD
ATOM     29 HH22 ARG A   6      72.753  65.866  19.935  0.00  0.00    +0.255 HD
ATOM     30  NH1 ARG A   6      74.147  67.946  19.865  0.00  0.00    -0.292 N 
ATOM     31 HH11 ARG A   6      74.740  68.798  19.928  0.00  0.00    +0.255 HD
ATOM     32 HH12 ARG A   6      73.829  67.601  18.937  0.00  0.00    +0.255 HD
ENDBRANCH  23  24
ENDBRANCH  22  23
ENDBRANCH  21  22
ENDBRANCH  11  21
ENDBRANCH   8  11
ENDBRANCH   6   7
BRANCH   6  33
ATOM     33  CB  VAL A   5      81.020  64.053  23.770  0.00  0.00    +0.027 C 
ATOM     34  CG2 VAL A   5      81.558  62.820  24.504  0.00  0.00    +0.002 C 
ATOM     35  CG1 VAL A   5      81.714  64.236  22.423  0.00  0.00    +0.002 C 
ENDBRANCH   6  33
ENDBRANCH   4   6
ENDBRANCH   1   2
BRANCH   1  37
ATOM     36  C   ASP A   3      79.668  59.002  23.142  0.00  0.00    +0.241 C 
ATOM     37  N   LYS A   4      78.391  59.375  23.187  0.00  0.00    -0.297 N 
ATOM     38  H   LYS A   4      77.699  58.740  23.633  0.00  0.00    +0.150 HD
ATOM     39  O   ASP A   3      80.559  59.702  22.645  0.00  0.00    -0.273 OA
BRANCH  36  40
ATOM     40  CA  ASP A   3      79.992  57.645  23.784  0.00  0.00    +0.160 C 
BRANCH  40  43
ATOM     41  C   GLN A   2      78.149  56.478  24.891  0.00  0.00    +0.241 C 
ATOM     42  O   GLN A   2      78.484  56.910  25.998  0.00  0.00    -0.273 OA
ATOM     43  N   ASP A   3      78.834  56.751  23.778  0.00  0.00    -0.297 N 
ATOM     44  H   ASP A   3      78.536  56.316  22.882  0.00  0.00    +0.150 HD
BRANCH  41  45
ATOM     45  CA  GLN A   2      76.892  55.598  24.769  0.00  0.00    +0.149 C 
BRANCH  45  47
ATOM     46  C   HIS A   1      75.481  57.477  25.471  0.00  0.00    +0.239 C 
ATOM     47  N   GLN A   2      75.800  56.185  25.548  0.00  0.00    -0.297 N 
ATOM     48  H   GLN A   2      75.253  55.571  26.185  0.00  0.00    +0.150 HD
ATOM     49  O   HIS A   1      76.061  58.272  24.729  0.00  0.00    -0.274 OA
BRANCH  46  50
ATOM     50  CA  HIS A   1      74.347  57.947  26.384  0.00  0.00    +0.151 C 
BRANCH  50  51
ATOM     51  N   HIS A   1      74.806  59.031  27.250  0.00  0.00    -0.238 NA
ATOM     52  H   HIS A   1      75.058  59.944  26.819  0.00  0.00    +0.142 HD
ENDBRANCH  50  51
BRANCH  50  53
ATOM     53  CB  HIS A   1      73.141  58.396  25.553  0.00  0.00    +0.074 C 
BRANCH  53  54
ATOM     54  CG  HIS A   1      71.881  58.545  26.348  0.00  0.00    +0.082 A 
ATOM     55  CD2 HIS A   1      71.539  58.076  27.572  0.00  0.00    +0.115 A 
ATOM     56  NE2 HIS A   1      70.259  58.502  27.827  0.00  0.00    -0.221 NA
ATOM     57  CE1 HIS A   1      69.830  59.211  26.797  0.00  0.00    +0.199 A 
ATOM     58  ND1 HIS A   1      70.791  59.256  25.892  0.00  0.00    -0.227 NA
ENDBRANCH  53  54
ENDBRANCH  50  53
ENDBRANCH  46  50
ENDBRANCH  45  47
BRANCH  45  59
ATOM     59  CB  GLN A   2      76.455  55.381  23.312  0.00  0.00    +0.039 C 
BRANCH  59  60
ATOM     60  CG  GLN A   2      75.230  54.472  23.150  0.00  0.00    +0.087 C 
BRANCH  60  61
ATOM     61  CD  GLN A   2      73.907  55.189  23.383  0.00  0.00    +0.219 C 
ATOM     62  NE2 GLN A   2      73.025  54.566  24.161  0.00  0.00    -0.329 N 
ATOM     63 HE21 GLN A   2      73.262  53.644  24.581  0.00  0.00    +0.145 HD
ATOM     64 HE22 GLN A   2      72.099  55.001  24.349  0.00  0.00    +0.145 HD
ATOM     65  OE1 GLN A   2      73.676  56.282  22.862  0.00  0.00    -0.275 OA
ENDBRANCH  60  61
ENDBRANCH  59  60
ENDBRANCH  45  59
ENDBRANCH  41  45
ENDBRANCH  40  43
BRANCH  40  66
ATOM     66  CB  ASP A   3      81.202  56.982  23.105  0.00  0.00    +0.143 C 
BRANCH  66  67
ATOM     67  CG  ASP A   3      80.983  56.696  21.623  0.00  0.00    +0.367 C 
ATOM     68  OD2 ASP A   3      79.845  56.829  21.122  0.00  0.00    -0.246 OA
ATOM     69  OD1 ASP A   3      81.973  56.328  20.957  0.00  0.00    -0.246 OA
ENDBRANCH  66  67
ENDBRANCH  40  66
ENDBRANCH  36  40
ENDBRANCH   1  37
BRANCH   1  70
ATOM     70  CB  LYS A   4      76.405  60.650  22.510  0.00  0.00    +0.029 C 
BRANCH  70  71
ATOM     71  CG  LYS A   4      75.854  59.719  21.447  0.00  0.00    +0.000 C 
BRANCH  71  72
ATOM     72  CD  LYS A   4      74.352  59.515  21.617  0.00  0.00    -0.024 C 
BRANCH  72  73
ATOM     73  CE  LYS A   4      73.735  58.788  20.436  0.00  0.00    -0.086 C 
BRANCH  73  74
ATOM     74  NZ  LYS A   4      74.088  57.341  20.386  0.00  0.00    +0.380 N 
ATOM     75  HZ1 LYS A   4      73.753  56.874  21.253  0.00  0.00    -0.089 HD
ATOM     76  HZ2 LYS A   4      75.120  57.240  20.313  0.00  0.00    -0.089 HD
ATOM     77  HZ3 LYS A   4      73.636  56.904  19.558  0.00  0.00    -0.089 HD
ENDBRANCH  73  74
ENDBRANCH  72  73
ENDBRANCH  71  72
ENDBRANCH  70  71
ENDBRANCH   1  70
TORSDOF 32
REMARK  Name = ../refined-set-2016/3f7i/3f7i_pocket.pdb
REMARK  123 active torsions:
REMARK  status: ('A' for Active; 'I' for Inactive)
REMARK    1  A    between atoms: _1  and  _3
REMARK    2  A    between atoms: _3  and  _4
REMARK    3  A    between atoms: _3  and  _6
REMARK    4  A    between atoms: _9  and  _11
REMARK    5  A    between atoms: _11  and  _12
REMARK    6  A    between atoms: _11  and  _14
REMARK    7  A    between atoms: _14  and  _15
REMARK    8  A    between atoms: _18  and  _20
REMARK    9  A    between atoms: _20  and  _21
REMARK   10  A    between atoms: _20  and  _23
REMARK   11  A    between atoms: _23  and  _24
REMARK   12  A    between atoms: _30  and  _32
REMARK   13  A    between atoms: _32  and  _33
REMARK   14  A    between atoms: _32  and  _35
REMARK   15  A    between atoms: _35  and  _36
REMARK   16  A    between atoms: _42  and  _44
REMARK   17  A    between atoms: _44  and  _45
REMARK   18  A    between atoms: _44  and  _47
REMARK   19  A    between atoms: _47  and  _48
REMARK   20  A    between atoms: _51  and  _53
REMARK   21  A    between atoms: _53  and  _54
REMARK   22  A    between atoms: _53  and  _56
REMARK   23  A    between atoms: _56  and  _57
REMARK   24  A    between atoms: _62  and  _64
REMARK   25  A    between atoms: _64  and  _65
REMARK   26  A    between atoms: _64  and  _67
REMARK   27  A    between atoms: _67  and  _68
REMARK   28  A    between atoms: _68  and  _69
REMARK   29  A    between atoms: _74  and  _76
REMARK   30  A    between atoms: _76  and  _77
REMARK   31  A    between atoms: _76  and  _79
REMARK   32  A    between atoms: _79  and  _80
REMARK   33  A    between atoms: _83  and  _85
REMARK   34  A    between atoms: _85  and  _86
REMARK   35  A    between atoms: _85  and  _88
REMARK   36  A    between atoms: _88  and  _89
REMARK   37  A    between atoms: _89  and  _90
REMARK   38  A    between atoms: _90  and  _91
REMARK   39  A    between atoms: _91  and  _92
REMARK   40  A    between atoms: _96  and  _98
REMARK   41  A    between atoms: _98  and  _99
REMARK   42  A    between atoms: _98  and  _101
REMARK   43  A    between atoms: _104  and  _106
REMARK   44  A    between atoms: _106  and  _107
REMARK   45  A    between atoms: _106  and  _109
REMARK   46  A    between atoms: _109  and  _110
REMARK   47  A    between atoms: _110  and  _111
REMARK   48  A    between atoms: _111  and  _112
REMARK   49  A    between atoms: _121  and  _123
REMARK   50  A    between atoms: _123  and  _124
REMARK   51  A    between atoms: _123  and  _126
REMARK   52  A    between atoms: _128  and  _130
REMARK   53  A    between atoms: _130  and  _131
REMARK   54  A    between atoms: _130  and  _133
REMARK   55  A    between atoms: _133  and  _134
REMARK   56  A    between atoms: _139  and  _140
REMARK   57  A    between atoms: _142  and  _144
REMARK   58  A    between atoms: _144  and  _145
REMARK   59  A    between atoms: _147  and  _149
REMARK   60  A    between atoms: _149  and  _150
REMARK   61  A    between atoms: _152  and  _154
REMARK   62  A    between atoms: _154  and  _155
REMARK   63  A    between atoms: _154  and  _157
REMARK   64  A    between atoms: _157  and  _158
REMARK   65  A    between atoms: _161  and  _163
REMARK   66  A    between atoms: _163  and  _164
REMARK   67  A    between atoms: _163  and  _166
REMARK   68  A    between atoms: _166  and  _167
REMARK   69  A    between atoms: _167  and  _168
REMARK   70  A    between atoms: _173  and  _175
REMARK   71  A    between atoms: _175  and  _176
REMARK   72  A    between atoms: _175  and  _178
REMARK   73  A    between atoms: _178  and  _179
REMARK   74  A    between atoms: _181  and  _183
REMARK   75  A    between atoms: _183  and  _184
REMARK   76  A    between atoms: _183  and  _186
REMARK   77  A    between atoms: _186  and  _187
REMARK   78  A    between atoms: _197  and  _199
REMARK   79  A    between atoms: _199  and  _200
REMARK   80  A    between atoms: _199  and  _202
REMARK   81  A    between atoms: _202  and  _203
REMARK   82  A    between atoms: _203  and  _204
REMARK   83  A    between atoms: _204  and  _205
REMARK   84  A    between atoms: _205  and  _206
REMARK   85  A    between atoms: _210  and  _212
REMARK   86  A    between atoms: _212  and  _213
REMARK   87  A    between atoms: _212  and  _215
REMARK   88  A    between atoms: _215  and  _216
REMARK   89  A    between atoms: _216  and  _217
REMARK   90  A    between atoms: _217  and  _218
REMARK   91  A    between atoms: _227  and  _229
REMARK   92  A    between atoms: _229  and  _230
REMARK   93  A    between atoms: _229  and  _232
REMARK   94  A    between atoms: _232  and  _233
REMARK   95  A    between atoms: _236  and  _238
REMARK   96  A    between atoms: _238  and  _239
REMARK   97  A    between atoms: _238  and  _241
REMARK   98  A    between atoms: _241  and  _242
REMARK   99  A    between atoms: _246  and  _247
REMARK  100  A    between atoms: _252  and  _254
REMARK  101  A    between atoms: _254  and  _255
REMARK  102  A    between atoms: _254  and  _257
REMARK  103  A    between atoms: _257  and  _258
REMARK  104  A    between atoms: _258  and  _259
REMARK  105  A    between atoms: _262  and  _264
REMARK  106  A    between atoms: _264  and  _265
REMARK  107  A    between atoms: _264  and  _267
REMARK  108  A    between atoms: _267  and  _268
REMARK  109  A    between atoms: _273  and  _275
REMARK  110  A    between atoms: _275  and  _276
REMARK  111  A    between atoms: _275  and  _278
REMARK  112  A    between atoms: _278  and  _279
REMARK  113  A    between atoms: _279  and  _280
REMARK  114  A    between atoms: _280  and  _281
REMARK  115  A    between atoms: _281  and  _282
REMARK  116  A    between atoms: _286  and  _288
REMARK  117  A    between atoms: _288  and  _289
REMARK  118  A    between atoms: _288  and  _291
REMARK  119  A    between atoms: _291  and  _292
REMARK  120  A    between atoms: _302  and  _304
REMARK  121  A    between atoms: _304  and  _305
REMARK  122  A    between atoms: _304  and  _307
REMARK  123  A    between atoms: _307  and  _308
REMARK                            x       y       z     vdW  Elec       q    Type
REMARK                         _______ _______ _______ _____ _____    ______ ____
ROOT
ATOM      1  CA  SER A   6      81.606  56.550  17.654  0.00  0.00    +0.178 C 
ENDROOT
BRANCH   1   2
ATOM      2  C   SER A   6      83.090  56.926  17.635  0.00  0.00    +0.243 C 
ATOM      3  N   TRP A   7      83.603  57.260  18.816  0.00  0.00    -0.297 N 
ATOM      4  H   TRP A   7      82.978  57.271  19.647  0.00  0.00    +0.150 HD
ATOM      5  O   SER A   6      83.745  56.910  16.586  0.00  0.00    -0.273 OA
BRANCH   3   6
ATOM      6  CA  TRP A   7      85.006  57.611  18.990  0.00  0.00    +0.153 C 
BRANCH   6   7
ATOM      7  C   TRP A   7      85.894  56.388  18.805  0.00  0.00    +0.241 C 
ATOM      8  O   TRP A   7      85.552  55.286  19.249  0.00  0.00    -0.273 OA
ATOM      9  N   LYS A   8      87.024  56.590  18.133  0.00  0.00    -0.297 N 
ATOM     10  H   LYS A   8      87.209  57.534  17.737  0.00  0.00    +0.150 HD
BRANCH   9  11
ATOM     11  CA  LYS A   8      88.012  55.538  17.931  0.00  0.00    +0.149 C 
BRANCH  11  12
ATOM     12  C   LYS A   8      89.196  55.785  18.847  0.00  0.00    +0.241 C 
ATOM     13  N   ARG A   9      89.872  54.711  19.248  0.00  0.00    -0.298 N 
ATOM     14  H   ARG A   9      89.585  53.768  18.916  0.00  0.00    +0.150 HD
ATOM     15  O   LYS A   8      89.500  56.932  19.183  0.00  0.00    -0.273 OA
BRANCH  13  16
ATOM     16  CA  ARG A   9      91.011  54.844  20.148  0.00  0.00    +0.137 C 
BRANCH  16  17
ATOM     17  C   ARG A   9      92.046  55.779  19.525  0.00  0.00    +0.227 C 
ATOM     18  O   ARG A   9      92.357  55.676  18.337  0.00  0.00    -0.286 OA
ENDBRANCH  16  17
BRANCH  16  19
ATOM     19  CB  ARG A   9      91.625  53.480  20.494  0.00  0.00    +0.031 C 
BRANCH  19  20
ATOM     20  CG  ARG A   9      92.280  52.752  19.342  0.00  0.00    +0.045 C 
BRANCH  20  21
ATOM     21  CD  ARG A   9      92.892  51.435  19.796  0.00  0.00    +0.174 C 
BRANCH  21  22
ATOM     22  NE  ARG A   9      93.817  50.907  18.791  0.00  0.00    -0.265 N 
ATOM     23  CZ  ARG A   9      94.690  49.921  18.999  0.00  0.00    +0.342 C 
ATOM     24  NH2 ARG A   9      94.780  49.332  20.183  0.00  0.00    -0.292 N 
ATOM     25 HH21 ARG A   9      94.165  49.638  20.964  0.00  0.00    +0.255 HD
ATOM     26 HH22 ARG A   9      95.466  48.564  20.331  0.00  0.00    +0.255 HD
ATOM     27  NH1 ARG A   9      95.482  49.518  18.014  0.00  0.00    -0.292 N 
ATOM     28 HH11 ARG A   9      96.163  48.749  18.176  0.00  0.00    +0.255 HD
ATOM     29 HH12 ARG A   9      95.422  49.971  17.080  0.00  0.00    +0.255 HD
ATOM     30  HE  ARG A   9      93.791  51.334  17.843  0.00  0.00    +0.259 HD
ENDBRANCH  21  22
ENDBRANCH  20  21
ENDBRANCH  19  20
ENDBRANCH  16  19
ENDBRANCH  13  16
ENDBRANCH  11  12
BRANCH  11  31
ATOM     31  CB  LYS A   8      88.472  55.507  16.472  0.00  0.00    +0.029 C 
BRANCH  31  32
ATOM     32  CG  LYS A   8      87.357  55.225  15.464  0.00  0.00    +0.000 C 
BRANCH  32  33
ATOM     33  CD  LYS A   8      86.517  54.016  15.872  0.00  0.00    -0.024 C 
BRANCH  33  34
ATOM     34  CE  LYS A   8      85.745  53.428  14.700  0.00  0.00    -0.086 C 
BRANCH  34  35
ATOM     35  NZ  LYS A   8      84.620  52.567  15.165  0.00  0.00    +0.380 N 
ATOM     36  HZ1 LYS A   8      83.965  53.135  15.740  0.00  0.00    -0.089 HD
ATOM     37  HZ2 LYS A   8      84.997  51.785  15.737  0.00  0.00    -0.089 HD
ATOM     38  HZ3 LYS A   8      84.115  52.183  14.341  0.00  0.00    -0.089 HD
ENDBRANCH  34  35
ENDBRANCH  33  34
ENDBRANCH  32  33
ENDBRANCH  31  32
ENDBRANCH  11  31
ENDBRANCH   9  11
ENDBRANCH   6   7
BRANCH   6  39
ATOM     39  CB  TRP A   7      85.237  58.211  20.376  0.00  0.00    +0.057 C 
BRANCH  39  40
ATOM     40  CG  TRP A   7      84.587  59.541  20.538  0.00  0.00    -0.002 A 
ATOM     41  CD1 TRP A   7      83.286  59.781  20.861  0.00  0.00    +0.068 A 
ATOM     42  NE1 TRP A   7      83.050  61.132  20.900  0.00  0.00    -0.352 N 
ATOM     43  HE1 TRP A   7      82.138  61.580  21.123  0.00  0.00    +0.166 HD
ATOM     44  CE2 TRP A   7      84.210  61.794  20.598  0.00  0.00    +0.056 A 
ATOM     45  CZ2 TRP A   7      84.471  63.157  20.513  0.00  0.00    +0.017 A 
ATOM     46  CH2 TRP A   7      85.745  63.536  20.180  0.00  0.00    +0.001 A 
ATOM     47  CZ3 TRP A   7      86.752  62.591  19.942  0.00  0.00    +0.000 A 
ATOM     48  CE3 TRP A   7      86.493  61.235  20.029  0.00  0.00    +0.001 A 
ATOM     49  CD2 TRP A   7      85.201  60.818  20.362  0.00  0.00    +0.013 A 
ENDBRANCH  39  40
ENDBRANCH   6  39
ENDBRANCH   3   6
ENDBRANCH   1   2
BRANCH   1  51
ATOM     50  C   GLN A   5      80.831  58.852  18.010  0.00  0.00    +0.241 C 
ATOM     51  N   SER A   6      80.810  57.569  18.354  0.00  0.00    -0.295 N 
ATOM     52  H   SER A   6      80.208  57.274  19.149  0.00  0.00    +0.150 HD
ATOM     53  O   GLN A   5      81.510  59.282  17.084  0.00  0.00    -0.273 OA
BRANCH  50  54
ATOM     54  CA  GLN A   5      79.961  59.805  18.828  0.00  0.00    +0.149 C 
BRANCH  54  57
ATOM     55  C   LEU A   4      80.004  62.242  18.982  0.00  0.00    +0.241 C 
ATOM     56  O   LEU A   4      79.905  62.232  20.211  0.00  0.00    -0.273 OA
ATOM     57  N   GLN A   5      80.000  61.138  18.238  0.00  0.00    -0.297 N 
ATOM     58  H   GLN A   5      80.026  61.229  17.202  0.00  0.00    +0.150 HD
BRANCH  55  59
ATOM     59  CA  LEU A   4      80.141  63.559  18.224  0.00  0.00    +0.149 C 
BRANCH  59  61
ATOM     60  C   GLY A   3      78.504  65.391  18.114  0.00  0.00    +0.243 C 
ATOM     61  N   LEU A   4      79.292  64.585  18.830  0.00  0.00    -0.297 N 
ATOM     62  H   LEU A   4      79.303  64.691  19.864  0.00  0.00    +0.150 HD
ATOM     63  O   GLY A   3      78.490  65.410  16.886  0.00  0.00    -0.273 OA
BRANCH  60  64
ATOM     64  CA  GLY A   3      77.602  66.324  18.899  0.00  0.00    +0.176 C 
BRANCH  64  67
ATOM     65  C   GLY A   2      78.170  68.682  18.685  0.00  0.00    +0.243 C 
ATOM     66  O   GLY A   2      78.924  68.640  19.647  0.00  0.00    -0.273 OA
ATOM     67  N   GLY A   3      77.487  67.627  18.256  0.00  0.00    -0.295 N 
ATOM     68  H   GLY A   3      76.853  67.733  17.439  0.00  0.00    +0.150 HD
BRANCH  65  69
ATOM     69  CA  GLY A   2      77.961  69.979  17.932  0.00  0.00    +0.176 C 
BRANCH  69  72
ATOM     70  C   TYR A   1      76.469  71.160  19.454  0.00  0.00    +0.239 C 
ATOM     71  O   TYR A   1      75.544  70.367  19.240  0.00  0.00    -0.274 OA
ATOM     72  N   GLY A   2      77.660  71.051  18.873  0.00  0.00    -0.296 N 
ATOM     73  H   GLY A   2      78.397  71.750  19.096  0.00  0.00    +0.150 HD
BRANCH  70  74
ATOM     74  CA  TYR A   1      76.302  72.312  20.450  0.00  0.00    +0.149 C 
BRANCH  74  75
ATOM     75  N   TYR A   1      77.312  73.376  20.270  0.00  0.00    -0.238 NA
ATOM     76  H   TYR A   1      77.999  73.540  21.033  0.00  0.00    +0.142 HD
ENDBRANCH  74  75
BRANCH  74  77
ATOM     77  CB  TYR A   1      74.878  72.884  20.389  0.00  0.00    +0.053 C 
BRANCH  77  78
ATOM     78  CG  TYR A   1      73.930  72.265  21.400  0.00  0.00    -0.020 A 
ATOM     79  CD2 TYR A   1      74.166  72.388  22.770  0.00  0.00    -0.001 A 
ATOM     80  CE2 TYR A   1      73.298  71.827  23.707  0.00  0.00    +0.036 A 
ATOM     81  CZ  TYR A   1      72.180  71.137  23.273  0.00  0.00    +0.134 A 
ATOM     82  CE1 TYR A   1      71.920  71.007  21.920  0.00  0.00    +0.036 A 
ATOM     83  CD1 TYR A   1      72.791  71.570  20.990  0.00  0.00    -0.001 A 
BRANCH  81  84
ATOM     84  OH  TYR A   1      71.309  70.587  24.189  0.00  0.00    -0.506 OA
ATOM     85  HH  TYR A   1      71.638  70.768  25.105  0.00  0.00    +0.292 HD
ENDBRANCH  81  84
ENDBRANCH  77  78
ENDBRANCH  74  77
ENDBRANCH  70  74
ENDBRANCH  69  72
ENDBRANCH  65  69
ENDBRANCH  64  67
ENDBRANCH  60  64
ENDBRANCH  59  61
BRANCH  59  86
ATOM     86  CB  LEU A   4      81.609  63.988  18.235  0.00  0.00    +0.029 C 
BRANCH  86  87
ATOM     87  CG  LEU A   4      81.995  65.142  17.313  0.00  0.00    +0.002 C 
ATOM     88  CD2 LEU A   4      83.433  65.569  17.572  0.00  0.00    +0.000 C 
ATOM     89  CD1 LEU A   4      81.802  64.766  15.851  0.00  0.00    +0.000 C 
ENDBRANCH  86  87
ENDBRANCH  59  86
ENDBRANCH  55  59
ENDBRANCH  54  57
BRANCH  54  90
ATOM     90  CB  GLN A   5      78.515  59.305  18.928  0.00  0.00    +0.039 C 
BRANCH  90  91
ATOM     91  CG  GLN A   5      77.825  59.007  17.612  0.00  0.00    +0.087 C 
BRANCH  91  92
ATOM     92  CD  GLN A   5      76.484  58.331  17.816  0.00  0.00    +0.219 C 
ATOM     93  OE1 GLN A   5      76.355  57.425  18.641  0.00  0.00    -0.275 OA
ATOM     94  NE2 GLN A   5      75.478  58.765  17.063  0.00  0.00    -0.329 N 
ATOM     95 HE21 GLN A   5      74.535  58.337  17.158  0.00  0.00    +0.145 HD
ATOM     96 HE22 GLN A   5      75.634  59.533  16.379  0.00  0.00    +0.145 HD
ENDBRANCH  91  92
ENDBRANCH  90  91
ENDBRANCH  54  90
ENDBRANCH  50  54
ENDBRANCH   1  51
BRANCH   1  97
ATOM     97  CB  SER A   6      81.082  56.321  16.235  0.00  0.00    +0.166 C 
BRANCH  97  98
ATOM     98  OG  SER A   6      79.702  56.012  16.250  0.00  0.00    -0.380 OA
ATOM     99  H   SER A   6      79.387  55.869  15.322  0.00  0.00    +0.211 HD
ENDBRANCH  97  98
ENDBRANCH   1  97
TORSDOF 39
REMARK  Name = ../refined-set-2016/3f7i/3f7i_pocket.pdb
REMARK  123 active torsions:
REMARK  status: ('A' for Active; 'I' for Inactive)
REMARK    1  A    between atoms: _1  and  _3
REMARK    2  A    between atoms: _3  and  _4
REMARK    3  A    between atoms: _3  and  _6
REMARK    4  A    between atoms: _9  and  _11
REMARK    5  A    between atoms: _11  and  _12
REMARK    6  A    between atoms: _11  and  _14
REMARK    7  A    between atoms: _14  and  _15
REMARK    8  A    between atoms: _18  and  _20
REMARK    9  A    between atoms: _20  and  _21
REMARK   10  A    between atoms: _20  and  _23
REMARK   11  A    between atoms: _23  and  _24
REMARK   12  A    between atoms: _30  and  _32
REMARK   13  A    between atoms: _32  and  _33
REMARK   14  A    between atoms: _32  and  _35
REMARK   15  A    between atoms: _35  and  _36
REMARK   16  A    between atoms: _42  and  _44
REMARK   17  A    between atoms: _44  and  _45
REMARK   18  A    between atoms: _44  and  _47
REMARK   19  A    between atoms: _47  and  _48
REMARK   20  A    between atoms: _51  and  _53
REMARK   21  A    between atoms: _53  and  _54
REMARK   22  A    between atoms: _53  and  _56
REMARK   23  A    between atoms: _56  and  _57
REMARK   24  A    between atoms: _62  and  _64
REMARK   25  A    between atoms: _64  and  _65
REMARK   26  A    between atoms: _64  and  _67
REMARK   27  A    between atoms: _67  and  _68
REMARK   28  A    between atoms: _68  and  _69
REMARK   29  A    between atoms: _74  and  _76
REMARK   30  A    between atoms: _76  and  _77
REMARK   31  A    between atoms: _76  and  _79
REMARK   32  A    between atoms: _79  and  _80
REMARK   33  A    between atoms: _83  and  _85
REMARK   34  A    between atoms: _85  and  _86
REMARK   35  A    between atoms: _85  and  _88
REMARK   36  A    between atoms: _88  and  _89
REMARK   37  A    between atoms: _89  and  _90
REMARK   38  A    between atoms: _90  and  _91
REMARK   39  A    between atoms: _91  and  _92
REMARK   40  A    between atoms: _96  and  _98
REMARK   41  A    between atoms: _98  and  _99
REMARK   42  A    between atoms: _98  and  _101
REMARK   43  A    between atoms: _104  and  _106
REMARK   44  A    between atoms: _106  and  _107
REMARK   45  A    between atoms: _106  and  _109
REMARK   46  A    between atoms: _109  and  _110
REMARK   47  A    between atoms: _110  and  _111
REMARK   48  A    between atoms: _111  and  _112
REMARK   49  A    between atoms: _121  and  _123
REMARK   50  A    between atoms: _123  and  _124
REMARK   51  A    between atoms: _123  and  _126
REMARK   52  A    between atoms: _128  and  _130
REMARK   53  A    between atoms: _130  and  _131
REMARK   54  A    between atoms: _130  and  _133
REMARK   55  A    between atoms: _133  and  _134
REMARK   56  A    between atoms: _139  and  _140
REMARK   57  A    between atoms: _142  and  _144
REMARK   58  A    between atoms: _144  and  _145
REMARK   59  A    between atoms: _147  and  _149
REMARK   60  A    between atoms: _149  and  _150
REMARK   61  A    between atoms: _152  and  _154
REMARK   62  A    between atoms: _154  and  _155
REMARK   63  A    between atoms: _154  and  _157
REMARK   64  A    between atoms: _157  and  _158
REMARK   65  A    between atoms: _161  and  _163
REMARK   66  A    between atoms: _163  and  _164
REMARK   67  A    between atoms: _163  and  _166
REMARK   68  A    between atoms: _166  and  _167
REMARK   69  A    between atoms: _167  and  _168
REMARK   70  A    between atoms: _173  and  _175
REMARK   71  A    between atoms: _175  and  _176
REMARK   72  A    between atoms: _175  and  _178
REMARK   73  A    between atoms: _178  and  _179
REMARK   74  A    between atoms: _181  and  _183
REMARK   75  A    between atoms: _183  and  _184
REMARK   76  A    between atoms: _183  and  _186
REMARK   77  A    between atoms: _186  and  _187
REMARK   78  A    between atoms: _197  and  _199
REMARK   79  A    between atoms: _199  and  _200
REMARK   80  A    between atoms: _199  and  _202
REMARK   81  A    between atoms: _202  and  _203
REMARK   82  A    between atoms: _203  and  _204
REMARK   83  A    between atoms: _204  and  _205
REMARK   84  A    between atoms: _205  and  _206
REMARK   85  A    between atoms: _210  and  _212
REMARK   86  A    between atoms: _212  and  _213
REMARK   87  A    between atoms: _212  and  _215
REMARK   88  A    between atoms: _215  and  _216
REMARK   89  A    between atoms: _216  and  _217
REMARK   90  A    between atoms: _217  and  _218
REMARK   91  A    between atoms: _227  and  _229
REMARK   92  A    between atoms: _229  and  _230
REMARK   93  A    between atoms: _229  and  _232
REMARK   94  A    between atoms: _232  and  _233
REMARK   95  A    between atoms: _236  and  _238
REMARK   96  A    between atoms: _238  and  _239
REMARK   97  A    between atoms: _238  and  _241
REMARK   98  A    between atoms: _241  and  _242
REMARK   99  A    between atoms: _246  and  _247
REMARK  100  A    between atoms: _252  and  _254
REMARK  101  A    between atoms: _254  and  _255
REMARK  102  A    between atoms: _254  and  _257
REMARK  103  A    between atoms: _257  and  _258
REMARK  104  A    between atoms: _258  and  _259
REMARK  105  A    between atoms: _262  and  _264
REMARK  106  A    between atoms: _264  and  _265
REMARK  107  A    between atoms: _264  and  _267
REMARK  108  A    between atoms: _267  and  _268
REMARK  109  A    between atoms: _273  and  _275
REMARK  110  A    between atoms: _275  and  _276
REMARK  111  A    between atoms: _275  and  _278
REMARK  112  A    between atoms: _278  and  _279
REMARK  113  A    between atoms: _279  and  _280
REMARK  114  A    between atoms: _280  and  _281
REMARK  115  A    between atoms: _281  and  _282
REMARK  116  A    between atoms: _286  and  _288
REMARK  117  A    between atoms: _288  and  _289
REMARK  118  A    between atoms: _288  and  _291
REMARK  119  A    between atoms: _291  and  _292
REMARK  120  A    between atoms: _302  and  _304
REMARK  121  A    between atoms: _304  and  _305
REMARK  122  A    between atoms: _304  and  _307
REMARK  123  A    between atoms: _307  and  _308
REMARK                            x       y       z     vdW  Elec       q    Type
REMARK                         _______ _______ _______ _____ _____    ______ ____
ROOT
ATOM      1  CA  ASP A   2      92.111  63.640  19.335  0.00  0.00    +0.160 C 
ENDROOT
BRANCH   1   2
ATOM      2  C   ASP A   2      90.925  64.592  19.362  0.00  0.00    +0.244 C 
ATOM      3  N   PRO A   3      90.355  64.842  20.557  0.00  0.00    -0.273 N 
ATOM      4  CD  PRO A   3      90.748  64.299  21.876  0.00  0.00    +0.094 C 
ATOM      5  CG  PRO A   3      89.559  64.587  22.741  0.00  0.00    +0.024 C 
ATOM      6  CB  PRO A   3      88.968  65.845  22.170  0.00  0.00    +0.030 C 
ATOM      7  CA  PRO A   3      89.159  65.686  20.657  0.00  0.00    +0.140 C 
ATOM      8  O   ASP A   2      90.510  65.073  18.306  0.00  0.00    -0.273 OA
BRANCH   7   9
ATOM      9  C   PRO A   3      89.244  67.044  19.951  0.00  0.00    +0.227 C 
ATOM     10  O   PRO A   3      88.302  67.410  19.251  0.00  0.00    -0.286 OA
ENDBRANCH   7   9
ENDBRANCH   1   2
BRANCH   1  13
ATOM     11  C   ASP A   1      91.393  61.323  19.249  0.00  0.00    +0.239 C 
ATOM     12  O   ASP A   1      91.385  61.223  20.479  0.00  0.00    -0.274 OA
ATOM     13  N   ASP A   2      91.715  62.443  18.613  0.00  0.00    -0.297 N 
ATOM     14  H   ASP A   2      91.683  62.464  17.574  0.00  0.00    +0.150 HD
BRANCH  11  15
ATOM     15  CA  ASP A   1      90.997  60.140  18.379  0.00  0.00    +0.156 C 
BRANCH  15  16
ATOM     16  N   ASP A   1      91.635  58.937  18.924  0.00  0.00    -0.238 NA
ATOM     17  H   ASP A   1      91.049  58.111  19.160  0.00  0.00    +0.142 HD
ENDBRANCH  15  16
BRANCH  15  18
ATOM     18  CB  ASP A   1      89.466  60.043  18.400  0.00  0.00    +0.140 C 
BRANCH  18  19
ATOM     19  CG  ASP A   1      88.871  59.473  17.122  0.00  0.00    +0.367 C 
ATOM     20  OD2 ASP A   1      87.636  59.303  17.111  0.00  0.00    -0.246 OA
ATOM     21  OD1 ASP A   1      89.595  59.201  16.140  0.00  0.00    -0.246 OA
ENDBRANCH  18  19
ENDBRANCH  15  18
ENDBRANCH  11  15
ENDBRANCH   1  13
BRANCH   1  22
ATOM     22  CB  ASP A   2      93.300  64.310  18.659  0.00  0.00    +0.143 C 
BRANCH  22  23
ATOM     23  CG  ASP A   2      93.723  65.572  19.374  0.00  0.00    +0.367 C 
ATOM     24  OD2 ASP A   2      94.178  65.468  20.528  0.00  0.00    -0.246 OA
ATOM     25  OD1 ASP A   2      93.579  66.664  18.796  0.00  0.00    -0.246 OA
ENDBRANCH  22  23
ENDBRANCH   1  22
TORSDOF 9
REMARK  Name = ../refined-set-2016/3f7i/3f7i_pocket.pdb
REMARK  123 active torsions:
REMARK  status: ('A' for Active; 'I' for Inactive)
REMARK    1  A    between atoms: _1  and  _3
REMARK    2  A    between atoms: _3  and  _4
REMARK    3  A    between atoms: _3  and  _6
REMARK    4  A    between atoms: _9  and  _11
REMARK    5  A    between atoms: _11  and  _12
REMARK    6  A    between atoms: _11  and  _14
REMARK    7  A    between atoms: _14  and  _15
REMARK    8  A    between atoms: _18  and  _20
REMARK    9  A    between atoms: _20  and  _21
REMARK   10  A    between atoms: _20  and  _23
REMARK   11  A    between atoms: _23  and  _24
REMARK   12  A    between atoms: _30  and  _32
REMARK   13  A    between atoms: _32  and  _33
REMARK   14  A    between atoms: _32  and  _35
REMARK   15  A    between atoms: _35  and  _36
REMARK   16  A    between atoms: _42  and  _44
REMARK   17  A    between atoms: _44  and  _45
REMARK   18  A    between atoms: _44  and  _47
REMARK   19  A    between atoms: _47  and  _48
REMARK   20  A    between atoms: _51  and  _53
REMARK   21  A    between atoms: _53  and  _54
REMARK   22  A    between atoms: _53  and  _56
REMARK   23  A    between atoms: _56  and  _57
REMARK   24  A    between atoms: _62  and  _64
REMARK   25  A    between atoms: _64  and  _65
REMARK   26  A    between atoms: _64  and  _67
REMARK   27  A    between atoms: _67  and  _68
REMARK   28  A    between atoms: _68  and  _69
REMARK   29  A    between atoms: _74  and  _76
REMARK   30  A    between atoms: _76  and  _77
REMARK   31  A    between atoms: _76  and  _79
REMARK   32  A    between atoms: _79  and  _80
REMARK   33  A    between atoms: _83  and  _85
REMARK   34  A    between atoms: _85  and  _86
REMARK   35  A    between atoms: _85  and  _88
REMARK   36  A    between atoms: _88  and  _89
REMARK   37  A    between atoms: _89  and  _90
REMARK   38  A    between atoms: _90  and  _91
REMARK   39  A    between atoms: _91  and  _92
REMARK   40  A    between atoms: _96  and  _98
REMARK   41  A    between atoms: _98  and  _99
REMARK   42  A    between atoms: _98  and  _101
REMARK   43  A    between atoms: _104  and  _106
REMARK   44  A    between atoms: _106  and  _107
REMARK   45  A    between atoms: _106  and  _109
REMARK   46  A    between atoms: _109  and  _110
REMARK   47  A    between atoms: _110  and  _111
REMARK   48  A    between atoms: _111  and  _112
REMARK   49  A    between atoms: _121  and  _123
REMARK   50  A    between atoms: _123  and  _124
REMARK   51  A    between atoms: _123  and  _126
REMARK   52  A    between atoms: _128  and  _130
REMARK   53  A    between atoms: _130  and  _131
REMARK   54  A    between atoms: _130  and  _133
REMARK   55  A    between atoms: _133  and  _134
REMARK   56  A    between atoms: _139  and  _140
REMARK   57  A    between atoms: _142  and  _144
REMARK   58  A    between atoms: _144  and  _145
REMARK   59  A    between atoms: _147  and  _149
REMARK   60  A    between atoms: _149  and  _150
REMARK   61  A    between atoms: _152  and  _154
REMARK   62  A    between atoms: _154  and  _155
REMARK   63  A    between atoms: _154  and  _157
REMARK   64  A    between atoms: _157  and  _158
REMARK   65  A    between atoms: _161  and  _163
REMARK   66  A    between atoms: _163  and  _164
REMARK   67  A    between atoms: _163  and  _166
REMARK   68  A    between atoms: _166  and  _167
REMARK   69  A    between atoms: _167  and  _168
REMARK   70  A    between atoms: _173  and  _175
REMARK   71  A    between atoms: _175  and  _176
REMARK   72  A    between atoms: _175  and  _178
REMARK   73  A    between atoms: _178  and  _179
REMARK   74  A    between atoms: _181  and  _183
REMARK   75  A    between atoms: _183  and  _184
REMARK   76  A    between atoms: _183  and  _186
REMARK   77  A    between atoms: _186  and  _187
REMARK   78  A    between atoms: _197  and  _199
REMARK   79  A    between atoms: _199  and  _200
REMARK   80  A    between atoms: _199  and  _202
REMARK   81  A    between atoms: _202  and  _203
REMARK   82  A    between atoms: _203  and  _204
REMARK   83  A    between atoms: _204  and  _205
REMARK   84  A    between atoms: _205  and  _206
REMARK   85  A    between atoms: _210  and  _212
REMARK   86  A    between atoms: _212  and  _213
REMARK   87  A    between atoms: _212  and  _215
REMARK   88  A    between atoms: _215  and  _216
REMARK   89  A    between atoms: _216  and  _217
REMARK   90  A    between atoms: _217  and  _218
REMARK   91  A    between atoms: _227  and  _229
REMARK   92  A    between atoms: _229  and  _230
REMARK   93  A    between atoms: _229  and  _232
REMARK   94  A    between atoms: _232  and  _233
REMARK   95  A    between atoms: _236  and  _238
REMARK   96  A    between atoms: _238  and  _239
REMARK   97  A    between atoms: _238  and  _241
REMARK   98  A    between atoms: _241  and  _242
REMARK   99  A    between atoms: _246  and  _247
REMARK  100  A    between atoms: _252  and  _254
REMARK  101  A    between atoms: _254  and  _255
REMARK  102  A    between atoms: _254  and  _257
REMARK  103  A    between atoms: _257  and  _258
REMARK  104  A    between atoms: _258  and  _259
REMARK  105  A    between atoms: _262  and  _264
REMARK  106  A    between atoms: _264  and  _265
REMARK  107  A    between atoms: _264  and  _267
REMARK  108  A    between atoms: _267  and  _268
REMARK  109  A    between atoms: _273  and  _275
REMARK  110  A    between atoms: _275  and  _276
REMARK  111  A    between atoms: _275  and  _278
REMARK  112  A    between atoms: _278  and  _279
REMARK  113  A    between atoms: _279  and  _280
REMARK  114  A    between atoms: _280  and  _281
REMARK  115  A    between atoms: _281  and  _282
REMARK  116  A    between atoms: _286  and  _288
REMARK  117  A    between atoms: _288  and  _289
REMARK  118  A    between atoms: _288  and  _291
REMARK  119  A    between atoms: _291  and  _292
REMARK  120  A    between atoms: _302  and  _304
REMARK  121  A    between atoms: _304  and  _305
REMARK  122  A    between atoms: _304  and  _307
REMARK  123  A    between atoms: _307  and  _308
REMARK                            x       y       z     vdW  Elec       q    Type
REMARK                         _______ _______ _______ _____ _____    ______ ____
ROOT
ATOM      1  C   GLU A   1      86.796  67.345  15.773  0.00  0.00    +0.238 C 
ATOM      2  N   HIS A   2      86.986  68.197  16.781  0.00  0.00    -0.298 N 
ATOM      3  H   HIS A   2      87.700  67.971  17.502  0.00  0.00    +0.150 HD
ATOM      4  O   GLU A   1      85.953  67.521  14.900  0.00  0.00    -0.274 OA
ENDROOT
BRANCH   1   5
ATOM      5  CA  GLU A   1      87.708  66.119  15.723  0.00  0.00    +0.145 C 
BRANCH   5   6
ATOM      6  N   GLU A   1      89.064  66.464  16.140  0.00  0.00    -0.238 NA
ATOM      7  H   GLU A   1      89.456  66.041  17.005  0.00  0.00    +0.142 HD
ENDBRANCH   5   6
BRANCH   5   8
ATOM      8  CB  GLU A   1      87.139  64.981  16.575  0.00  0.00    +0.038 C 
BRANCH   8   9
ATOM      9  CG  GLU A   1      87.910  63.663  16.479  0.00  0.00    +0.116 C 
BRANCH   9  10
ATOM     10  CD  GLU A   1      87.948  63.093  15.075  0.00  0.00    +0.365 C 
ATOM     11  OE2 GLU A   1      89.062  62.873  14.547  0.00  0.00    -0.246 OA
ATOM     12  OE1 GLU A   1      86.865  62.847  14.502  0.00  0.00    -0.246 OA
ENDBRANCH   9  10
ENDBRANCH   8   9
ENDBRANCH   5   8
ENDBRANCH   1   5
BRANCH   2  13
ATOM     13  CA  HIS A   2      86.217  69.450  16.907  0.00  0.00    +0.143 C 
BRANCH  13  14
ATOM     14  C   HIS A   2      86.399  70.340  15.668  0.00  0.00    +0.227 C 
ATOM     15  O   HIS A   2      85.422  70.861  15.113  0.00  0.00    -0.286 OA
ENDBRANCH  13  14
BRANCH  13  16
ATOM     16  CB  HIS A   2      86.657  70.214  18.165  0.00  0.00    +0.075 C 
BRANCH  16  17
ATOM     17  CG  HIS A   2      85.592  71.086  18.763  0.00  0.00    +0.082 A 
ATOM     18  ND1 HIS A   2      85.533  71.351  20.114  0.00  0.00    -0.227 NA
ATOM     19  CE1 HIS A   2      84.502  72.141  20.363  0.00  0.00    +0.199 A 
ATOM     20  NE2 HIS A   2      83.886  72.395  19.223  0.00  0.00    -0.221 NA
ATOM     21  CD2 HIS A   2      84.549  71.748  18.206  0.00  0.00    +0.115 A 
ENDBRANCH  16  17
ENDBRANCH  13  16
ENDBRANCH   2  13
TORSDOF 9
REMARK  Name = ../refined-set-2016/3f7i/3f7i_pocket.pdb
REMARK  123 active torsions:
REMARK  status: ('A' for Active; 'I' for Inactive)
REMARK    1  A    between atoms: _1  and  _3
REMARK    2  A    between atoms: _3  and  _4
REMARK    3  A    between atoms: _3  and  _6
REMARK    4  A    between atoms: _9  and  _11
REMARK    5  A    between atoms: _11  and  _12
REMARK    6  A    between atoms: _11  and  _14
REMARK    7  A    between atoms: _14  and  _15
REMARK    8  A    between atoms: _18  and  _20
REMARK    9  A    between atoms: _20  and  _21
REMARK   10  A    between atoms: _20  and  _23
REMARK   11  A    between atoms: _23  and  _24
REMARK   12  A    between atoms: _30  and  _32
REMARK   13  A    between atoms: _32  and  _33
REMARK   14  A    between atoms: _32  and  _35
REMARK   15  A    between atoms: _35  and  _36
REMARK   16  A    between atoms: _42  and  _44
REMARK   17  A    between atoms: _44  and  _45
REMARK   18  A    between atoms: _44  and  _47
REMARK   19  A    between atoms: _47  and  _48
REMARK   20  A    between atoms: _51  and  _53
REMARK   21  A    between atoms: _53  and  _54
REMARK   22  A    between atoms: _53  and  _56
REMARK   23  A    between atoms: _56  and  _57
REMARK   24  A    between atoms: _62  and  _64
REMARK   25  A    between atoms: _64  and  _65
REMARK   26  A    between atoms: _64  and  _67
REMARK   27  A    between atoms: _67  and  _68
REMARK   28  A    between atoms: _68  and  _69
REMARK   29  A    between atoms: _74  and  _76
REMARK   30  A    between atoms: _76  and  _77
REMARK   31  A    between atoms: _76  and  _79
REMARK   32  A    between atoms: _79  and  _80
REMARK   33  A    between atoms: _83  and  _85
REMARK   34  A    between atoms: _85  and  _86
REMARK   35  A    between atoms: _85  and  _88
REMARK   36  A    between atoms: _88  and  _89
REMARK   37  A    between atoms: _89  and  _90
REMARK   38  A    between atoms: _90  and  _91
REMARK   39  A    between atoms: _91  and  _92
REMARK   40  A    between atoms: _96  and  _98
REMARK   41  A    between atoms: _98  and  _99
REMARK   42  A    between atoms: _98  and  _101
REMARK   43  A    between atoms: _104  and  _106
REMARK   44  A    between atoms: _106  and  _107
REMARK   45  A    between atoms: _106  and  _109
REMARK   46  A    between atoms: _109  and  _110
REMARK   47  A    between atoms: _110  and  _111
REMARK   48  A    between atoms: _111  and  _112
REMARK   49  A    between atoms: _121  and  _123
REMARK   50  A    between atoms: _123  and  _124
REMARK   51  A    between atoms: _123  and  _126
REMARK   52  A    between atoms: _128  and  _130
REMARK   53  A    between atoms: _130  and  _131
REMARK   54  A    between atoms: _130  and  _133
REMARK   55  A    between atoms: _133  and  _134
REMARK   56  A    between atoms: _139  and  _140
REMARK   57  A    between atoms: _142  and  _144
REMARK   58  A    between atoms: _144  and  _145
REMARK   59  A    between atoms: _147  and  _149
REMARK   60  A    between atoms: _149  and  _150
REMARK   61  A    between atoms: _152  and  _154
REMARK   62  A    between atoms: _154  and  _155
REMARK   63  A    between atoms: _154  and  _157
REMARK   64  A    between atoms: _157  and  _158
REMARK   65  A    between atoms: _161  and  _163
REMARK   66  A    between atoms: _163  and  _164
REMARK   67  A    between atoms: _163  and  _166
REMARK   68  A    between atoms: _166  and  _167
REMARK   69  A    between atoms: _167  and  _168
REMARK   70  A    between atoms: _173  and  _175
REMARK   71  A    between atoms: _175  and  _176
REMARK   72  A    between atoms: _175  and  _178
REMARK   73  A    between atoms: _178  and  _179
REMARK   74  A    between atoms: _181  and  _183
REMARK   75  A    between atoms: _183  and  _184
REMARK   76  A    between atoms: _183  and  _186
REMARK   77  A    between atoms: _186  and  _187
REMARK   78  A    between atoms: _197  and  _199
REMARK   79  A    between atoms: _199  and  _200
REMARK   80  A    between atoms: _199  and  _202
REMARK   81  A    between atoms: _202  and  _203
REMARK   82  A    between atoms: _203  and  _204
REMARK   83  A    between atoms: _204  and  _205
REMARK   84  A    between atoms: _205  and  _206
REMARK   85  A    between atoms: _210  and  _212
REMARK   86  A    between atoms: _212  and  _213
REMARK   87  A    between atoms: _212  and  _215
REMARK   88  A    between atoms: _215  and  _216
REMARK   89  A    between atoms: _216  and  _217
REMARK   90  A    between atoms: _217  and  _218
REMARK   91  A    between atoms: _227  and  _229
REMARK   92  A    between atoms: _229  and  _230
REMARK   93  A    between atoms: _229  and  _232
REMARK   94  A    between atoms: _232  and  _233
REMARK   95  A    between atoms: _236  and  _238
REMARK   96  A    between atoms: _238  and  _239
REMARK   97  A    between atoms: _238  and  _241
REMARK   98  A    between atoms: _241  and  _242
REMARK   99  A    between atoms: _246  and  _247
REMARK  100  A    between atoms: _252  and  _254
REMARK  101  A    between atoms: _254  and  _255
REMARK  102  A    between atoms: _254  and  _257
REMARK  103  A    between atoms: _257  and  _258
REMARK  104  A    between atoms: _258  and  _259
REMARK  105  A    between atoms: _262  and  _264
REMARK  106  A    between atoms: _264  and  _265
REMARK  107  A    between atoms: _264  and  _267
REMARK  108  A    between atoms: _267  and  _268
REMARK  109  A    between atoms: _273  and  _275
REMARK  110  A    between atoms: _275  and  _276
REMARK  111  A    between atoms: _275  and  _278
REMARK  112  A    between atoms: _278  and  _279
REMARK  113  A    between atoms: _279  and  _280
REMARK  114  A    between atoms: _280  and  _281
REMARK  115  A    between atoms: _281  and  _282
REMARK  116  A    between atoms: _286  and  _288
REMARK  117  A    between atoms: _288  and  _289
REMARK  118  A    between atoms: _288  and  _291
REMARK  119  A    between atoms: _291  and  _292
REMARK  120  A    between atoms: _302  and  _304
REMARK  121  A    between atoms: _304  and  _305
REMARK  122  A    between atoms: _304  and  _307
REMARK  123  A    between atoms: _307  and  _308
REMARK                            x       y       z     vdW  Elec       q    Type
REMARK                         _______ _______ _______ _____ _____    ______ ____
ROOT
ATOM      1  CA  TRP A   2      83.525  68.565  12.035  0.00  0.00    +0.153 C 
ENDROOT
BRANCH   1   3
ATOM      2  C   LYS A   1      85.818  68.810  11.206  0.00  0.00    +0.238 C 
ATOM      3  N   TRP A   2      84.979  68.619  12.224  0.00  0.00    -0.297 N 
ATOM      4  H   TRP A   2      85.367  68.505  13.182  0.00  0.00    +0.150 HD
ATOM      5  O   LYS A   1      85.442  69.116  10.077  0.00  0.00    -0.274 OA
BRANCH   2   6
ATOM      6  CA  LYS A   1      87.309  68.644  11.503  0.00  0.00    +0.145 C 
BRANCH   6   7
ATOM      7  N   LYS A   1      87.720  69.412  12.672  0.00  0.00    -0.238 NA
ATOM      8  H   LYS A   1      88.146  68.904  13.473  0.00  0.00    +0.142 HD
ENDBRANCH   6   7
BRANCH   6   9
ATOM      9  CB  LYS A   1      87.634  67.166  11.740  0.00  0.00    +0.026 C 
BRANCH   9  10
ATOM     10  CG  LYS A   1      87.478  66.255  10.541  0.00  0.00    -0.000 C 
BRANCH  10  11
ATOM     11  CD  LYS A   1      87.720  64.785  10.922  0.00  0.00    -0.024 C 
BRANCH  11  12
ATOM     12  CE  LYS A   1      89.142  64.542  11.445  0.00  0.00    -0.086 C 
BRANCH  12  13
ATOM     13  NZ  LYS A   1      89.464  63.086  11.622  0.00  0.00    +0.380 N 
ATOM     14  HZ1 LYS A   1      88.801  62.666  12.304  0.00  0.00    -0.089 HD
ATOM     15  HZ2 LYS A   1      90.437  62.988  11.977  0.00  0.00    -0.089 HD
ATOM     16  HZ3 LYS A   1      89.377  62.599  10.707  0.00  0.00    -0.089 HD
ENDBRANCH  12  13
ENDBRANCH  11  12
ENDBRANCH  10  11
ENDBRANCH   9  10
ENDBRANCH   6   9
ENDBRANCH   2   6
ENDBRANCH   1   3
BRANCH   1  17
ATOM     17  C   TRP A   2      82.810  69.893  12.280  0.00  0.00    +0.241 C 
ATOM     18  N   PHE A   3      83.364  70.733  13.153  0.00  0.00    -0.298 N 
ATOM     19  H   PHE A   3      84.275  70.481  13.587  0.00  0.00    +0.150 HD
ATOM     20  O   TRP A   2      81.757  70.138  11.692  0.00  0.00    -0.273 OA
BRANCH  18  21
ATOM     21  CA  PHE A   3      82.728  72.004  13.521  0.00  0.00    +0.141 C 
BRANCH  21  22
ATOM     22  C   PHE A   3      83.710  73.174  13.456  0.00  0.00    +0.227 C 
ATOM     23  O   PHE A   3      83.913  73.871  14.452  0.00  0.00    -0.286 OA
ENDBRANCH  21  22
BRANCH  21  24
ATOM     24  CB  PHE A   3      82.128  71.907  14.924  0.00  0.00    +0.054 C 
BRANCH  24  25
ATOM     25  CG  PHE A   3      81.312  70.670  15.147  0.00  0.00    -0.020 A 
ATOM     26  CD2 PHE A   3      81.698  69.728  16.084  0.00  0.00    -0.004 A 
ATOM     27  CE2 PHE A   3      80.945  68.580  16.284  0.00  0.00    -0.000 A 
ATOM     28  CZ  PHE A   3      79.799  68.364  15.545  0.00  0.00    -0.000 A 
ATOM     29  CE1 PHE A   3      79.400  69.298  14.609  0.00  0.00    -0.000 A 
ATOM     30  CD1 PHE A   3      80.156  70.446  14.413  0.00  0.00    -0.004 A 
ENDBRANCH  24  25
ENDBRANCH  21  24
ENDBRANCH  18  21
ENDBRANCH   1  17
BRANCH   1  31
ATOM     31  CB  TRP A   2      82.913  67.488  12.939  0.00  0.00    +0.057 C 
BRANCH  31  32
ATOM     32  CG  TRP A   2      83.404  66.112  12.625  0.00  0.00    -0.002 A 
ATOM     33  CD1 TRP A   2      84.254  65.357  13.374  0.00  0.00    +0.068 A 
ATOM     34  NE1 TRP A   2      84.485  64.152  12.758  0.00  0.00    -0.352 N 
ATOM     35  HE1 TRP A   2      85.097  63.394  13.124  0.00  0.00    +0.166 HD
ATOM     36  CE2 TRP A   2      83.781  64.108  11.585  0.00  0.00    +0.056 A 
ATOM     37  CZ2 TRP A   2      83.694  63.100  10.622  0.00  0.00    +0.017 A 
ATOM     38  CH2 TRP A   2      82.896  63.333   9.534  0.00  0.00    +0.001 A 
ATOM     39  CZ3 TRP A   2      82.192  64.538   9.387  0.00  0.00    +0.000 A 
ATOM     40  CE3 TRP A   2      82.280  65.541  10.342  0.00  0.00    +0.001 A 
ATOM     41  CD2 TRP A   2      83.088  65.330  11.466  0.00  0.00    +0.013 A 
ENDBRANCH  31  32
ENDBRANCH   1  31
TORSDOF 15
REMARK  Name = ../refined-set-2016/3f7i/3f7i_pocket.pdb
REMARK  123 active torsions:
REMARK  status: ('A' for Active; 'I' for Inactive)
REMARK    1  A    between atoms: _1  and  _3
REMARK    2  A    between atoms: _3  and  _4
REMARK    3  A    between atoms: _3  and  _6
REMARK    4  A    between atoms: _9  and  _11
REMARK    5  A    between atoms: _11  and  _12
REMARK    6  A    between atoms: _11  and  _14
REMARK    7  A    between atoms: _14  and  _15
REMARK    8  A    between atoms: _18  and  _20
REMARK    9  A    between atoms: _20  and  _21
REMARK   10  A    between atoms: _20  and  _23
REMARK   11  A    between atoms: _23  and  _24
REMARK   12  A    between atoms: _30  and  _32
REMARK   13  A    between atoms: _32  and  _33
REMARK   14  A    between atoms: _32  and  _35
REMARK   15  A    between atoms: _35  and  _36
REMARK   16  A    between atoms: _42  and  _44
REMARK   17  A    between atoms: _44  and  _45
REMARK   18  A    between atoms: _44  and  _47
REMARK   19  A    between atoms: _47  and  _48
REMARK   20  A    between atoms: _51  and  _53
REMARK   21  A    between atoms: _53  and  _54
REMARK   22  A    between atoms: _53  and  _56
REMARK   23  A    between atoms: _56  and  _57
REMARK   24  A    between atoms: _62  and  _64
REMARK   25  A    between atoms: _64  and  _65
REMARK   26  A    between atoms: _64  and  _67
REMARK   27  A    between atoms: _67  and  _68
REMARK   28  A    between atoms: _68  and  _69
REMARK   29  A    between atoms: _74  and  _76
REMARK   30  A    between atoms: _76  and  _77
REMARK   31  A    between atoms: _76  and  _79
REMARK   32  A    between atoms: _79  and  _80
REMARK   33  A    between atoms: _83  and  _85
REMARK   34  A    between atoms: _85  and  _86
REMARK   35  A    between atoms: _85  and  _88
REMARK   36  A    between atoms: _88  and  _89
REMARK   37  A    between atoms: _89  and  _90
REMARK   38  A    between atoms: _90  and  _91
REMARK   39  A    between atoms: _91  and  _92
REMARK   40  A    between atoms: _96  and  _98
REMARK   41  A    between atoms: _98  and  _99
REMARK   42  A    between atoms: _98  and  _101
REMARK   43  A    between atoms: _104  and  _106
REMARK   44  A    between atoms: _106  and  _107
REMARK   45  A    between atoms: _106  and  _109
REMARK   46  A    between atoms: _109  and  _110
REMARK   47  A    between atoms: _110  and  _111
REMARK   48  A    between atoms: _111  and  _112
REMARK   49  A    between atoms: _121  and  _123
REMARK   50  A    between atoms: _123  and  _124
REMARK   51  A    between atoms: _123  and  _126
REMARK   52  A    between atoms: _128  and  _130
REMARK   53  A    between atoms: _130  and  _131
REMARK   54  A    between atoms: _130  and  _133
REMARK   55  A    between atoms: _133  and  _134
REMARK   56  A    between atoms: _139  and  _140
REMARK   57  A    between atoms: _142  and  _144
REMARK   58  A    between atoms: _144  and  _145
REMARK   59  A    between atoms: _147  and  _149
REMARK   60  A    between atoms: _149  and  _150
REMARK   61  A    between atoms: _152  and  _154
REMARK   62  A    between atoms: _154  and  _155
REMARK   63  A    between atoms: _154  and  _157
REMARK   64  A    between atoms: _157  and  _158
REMARK   65  A    between atoms: _161  and  _163
REMARK   66  A    between atoms: _163  and  _164
REMARK   67  A    between atoms: _163  and  _166
REMARK   68  A    between atoms: _166  and  _167
REMARK   69  A    between atoms: _167  and  _168
REMARK   70  A    between atoms: _173  and  _175
REMARK   71  A    between atoms: _175  and  _176
REMARK   72  A    between atoms: _175  and  _178
REMARK   73  A    between atoms: _178  and  _179
REMARK   74  A    between atoms: _181  and  _183
REMARK   75  A    between atoms: _183  and  _184
REMARK   76  A    between atoms: _183  and  _186
REMARK   77  A    between atoms: _186  and  _187
REMARK   78  A    between atoms: _197  and  _199
REMARK   79  A    between atoms: _199  and  _200
REMARK   80  A    between atoms: _199  and  _202
REMARK   81  A    between atoms: _202  and  _203
REMARK   82  A    between atoms: _203  and  _204
REMARK   83  A    between atoms: _204  and  _205
REMARK   84  A    between atoms: _205  and  _206
REMARK   85  A    between atoms: _210  and  _212
REMARK   86  A    between atoms: _212  and  _213
REMARK   87  A    between atoms: _212  and  _215
REMARK   88  A    between atoms: _215  and  _216
REMARK   89  A    between atoms: _216  and  _217
REMARK   90  A    between atoms: _217  and  _218
REMARK   91  A    between atoms: _227  and  _229
REMARK   92  A    between atoms: _229  and  _230
REMARK   93  A    between atoms: _229  and  _232
REMARK   94  A    between atoms: _232  and  _233
REMARK   95  A    between atoms: _236  and  _238
REMARK   96  A    between atoms: _238  and  _239
REMARK   97  A    between atoms: _238  and  _241
REMARK   98  A    between atoms: _241  and  _242
REMARK   99  A    between atoms: _246  and  _247
REMARK  100  A    between atoms: _252  and  _254
REMARK  101  A    between atoms: _254  and  _255
REMARK  102  A    between atoms: _254  and  _257
REMARK  103  A    between atoms: _257  and  _258
REMARK  104  A    between atoms: _258  and  _259
REMARK  105  A    between atoms: _262  and  _264
REMARK  106  A    between atoms: _264  and  _265
REMARK  107  A    between atoms: _264  and  _267
REMARK  108  A    between atoms: _267  and  _268
REMARK  109  A    between atoms: _273  and  _275
REMARK  110  A    between atoms: _275  and  _276
REMARK  111  A    between atoms: _275  and  _278
REMARK  112  A    between atoms: _278  and  _279
REMARK  113  A    between atoms: _279  and  _280
REMARK  114  A    between atoms: _280  and  _281
REMARK  115  A    between atoms: _281  and  _282
REMARK  116  A    between atoms: _286  and  _288
REMARK  117  A    between atoms: _288  and  _289
REMARK  118  A    between atoms: _288  and  _291
REMARK  119  A    between atoms: _291  and  _292
REMARK  120  A    between atoms: _302  and  _304
REMARK  121  A    between atoms: _304  and  _305
REMARK  122  A    between atoms: _304  and  _307
REMARK  123  A    between atoms: _307  and  _308
REMARK                            x       y       z     vdW  Elec       q    Type
REMARK                         _______ _______ _______ _____ _____    ______ ____
ROOT
ATOM      1  O   HOH     1      79.706  68.445  10.736  0.00  0.00    +0.000 OA
ENDROOT
TORSDOF 0
REMARK  Name = ../refined-set-2016/3f7i/3f7i_pocket.pdb
REMARK  123 active torsions:
REMARK  status: ('A' for Active; 'I' for Inactive)
REMARK    1  A    between atoms: _1  and  _3
REMARK    2  A    between atoms: _3  and  _4
REMARK    3  A    between atoms: _3  and  _6
REMARK    4  A    between atoms: _9  and  _11
REMARK    5  A    between atoms: _11  and  _12
REMARK    6  A    between atoms: _11  and  _14
REMARK    7  A    between atoms: _14  and  _15
REMARK    8  A    between atoms: _18  and  _20
REMARK    9  A    between atoms: _20  and  _21
REMARK   10  A    between atoms: _20  and  _23
REMARK   11  A    between atoms: _23  and  _24
REMARK   12  A    between atoms: _30  and  _32
REMARK   13  A    between atoms: _32  and  _33
REMARK   14  A    between atoms: _32  and  _35
REMARK   15  A    between atoms: _35  and  _36
REMARK   16  A    between atoms: _42  and  _44
REMARK   17  A    between atoms: _44  and  _45
REMARK   18  A    between atoms: _44  and  _47
REMARK   19  A    between atoms: _47  and  _48
REMARK   20  A    between atoms: _51  and  _53
REMARK   21  A    between atoms: _53  and  _54
REMARK   22  A    between atoms: _53  and  _56
REMARK   23  A    between atoms: _56  and  _57
REMARK   24  A    between atoms: _62  and  _64
REMARK   25  A    between atoms: _64  and  _65
REMARK   26  A    between atoms: _64  and  _67
REMARK   27  A    between atoms: _67  and  _68
REMARK   28  A    between atoms: _68  and  _69
REMARK   29  A    between atoms: _74  and  _76
REMARK   30  A    between atoms: _76  and  _77
REMARK   31  A    between atoms: _76  and  _79
REMARK   32  A    between atoms: _79  and  _80
REMARK   33  A    between atoms: _83  and  _85
REMARK   34  A    between atoms: _85  and  _86
REMARK   35  A    between atoms: _85  and  _88
REMARK   36  A    between atoms: _88  and  _89
REMARK   37  A    between atoms: _89  and  _90
REMARK   38  A    between atoms: _90  and  _91
REMARK   39  A    between atoms: _91  and  _92
REMARK   40  A    between atoms: _96  and  _98
REMARK   41  A    between atoms: _98  and  _99
REMARK   42  A    between atoms: _98  and  _101
REMARK   43  A    between atoms: _104  and  _106
REMARK   44  A    between atoms: _106  and  _107
REMARK   45  A    between atoms: _106  and  _109
REMARK   46  A    between atoms: _109  and  _110
REMARK   47  A    between atoms: _110  and  _111
REMARK   48  A    between atoms: _111  and  _112
REMARK   49  A    between atoms: _121  and  _123
REMARK   50  A    between atoms: _123  and  _124
REMARK   51  A    between atoms: _123  and  _126
REMARK   52  A    between atoms: _128  and  _130
REMARK   53  A    between atoms: _130  and  _131
REMARK   54  A    between atoms: _130  and  _133
REMARK   55  A    between atoms: _133  and  _134
REMARK   56  A    between atoms: _139  and  _140
REMARK   57  A    between atoms: _142  and  _144
REMARK   58  A    between atoms: _144  and  _145
REMARK   59  A    between atoms: _147  and  _149
REMARK   60  A    between atoms: _149  and  _150
REMARK   61  A    between atoms: _152  and  _154
REMARK   62  A    between atoms: _154  and  _155
REMARK   63  A    between atoms: _154  and  _157
REMARK   64  A    between atoms: _157  and  _158
REMARK   65  A    between atoms: _161  and  _163
REMARK   66  A    between atoms: _163  and  _164
REMARK   67  A    between atoms: _163  and  _166
REMARK   68  A    between atoms: _166  and  _167
REMARK   69  A    between atoms: _167  and  _168
REMARK   70  A    between atoms: _173  and  _175
REMARK   71  A    between atoms: _175  and  _176
REMARK   72  A    between atoms: _175  and  _178
REMARK   73  A    between atoms: _178  and  _179
REMARK   74  A    between atoms: _181  and  _183
REMARK   75  A    between atoms: _183  and  _184
REMARK   76  A    between atoms: _183  and  _186
REMARK   77  A    between atoms: _186  and  _187
REMARK   78  A    between atoms: _197  and  _199
REMARK   79  A    between atoms: _199  and  _200
REMARK   80  A    between atoms: _199  and  _202
REMARK   81  A    between atoms: _202  and  _203
REMARK   82  A    between atoms: _203  and  _204
REMARK   83  A    between atoms: _204  and  _205
REMARK   84  A    between atoms: _205  and  _206
REMARK   85  A    between atoms: _210  and  _212
REMARK   86  A    between atoms: _212  and  _213
REMARK   87  A    between atoms: _212  and  _215
REMARK   88  A    between atoms: _215  and  _216
REMARK   89  A    between atoms: _216  and  _217
REMARK   90  A    between atoms: _217  and  _218
REMARK   91  A    between atoms: _227  and  _229
REMARK   92  A    between atoms: _229  and  _230
REMARK   93  A    between atoms: _229  and  _232
REMARK   94  A    between atoms: _232  and  _233
REMARK   95  A    between atoms: _236  and  _238
REMARK   96  A    between atoms: _238  and  _239
REMARK   97  A    between atoms: _238  and  _241
REMARK   98  A    between atoms: _241  and  _242
REMARK   99  A    between atoms: _246  and  _247
REMARK  100  A    between atoms: _252  and  _254
REMARK  101  A    between atoms: _254  and  _255
REMARK  102  A    between atoms: _254  and  _257
REMARK  103  A    between atoms: _257  and  _258
REMARK  104  A    between atoms: _258  and  _259
REMARK  105  A    between atoms: _262  and  _264
REMARK  106  A    between atoms: _264  and  _265
REMARK  107  A    between atoms: _264  and  _267
REMARK  108  A    between atoms: _267  and  _268
REMARK  109  A    between atoms: _273  and  _275
REMARK  110  A    between atoms: _275  and  _276
REMARK  111  A    between atoms: _275  and  _278
REMARK  112  A    between atoms: _278  and  _279
REMARK  113  A    between atoms: _279  and  _280
REMARK  114  A    between atoms: _280  and  _281
REMARK  115  A    between atoms: _281  and  _282
REMARK  116  A    between atoms: _286  and  _288
REMARK  117  A    between atoms: _288  and  _289
REMARK  118  A    between atoms: _288  and  _291
REMARK  119  A    between atoms: _291  and  _292
REMARK  120  A    between atoms: _302  and  _304
REMARK  121  A    between atoms: _304  and  _305
REMARK  122  A    between atoms: _304  and  _307
REMARK  123  A    between atoms: _307  and  _308
REMARK                            x       y       z     vdW  Elec       q    Type
REMARK                         _______ _______ _______ _____ _____    ______ ____
ROOT
ATOM      1  O   HOH     1      76.168  72.018  15.290  0.00  0.00    +0.000 OA
ENDROOT
TORSDOF 0
REMARK  Name = ../refined-set-2016/3f7i/3f7i_pocket.pdb
REMARK  123 active torsions:
REMARK  status: ('A' for Active; 'I' for Inactive)
REMARK    1  A    between atoms: _1  and  _3
REMARK    2  A    between atoms: _3  and  _4
REMARK    3  A    between atoms: _3  and  _6
REMARK    4  A    between atoms: _9  and  _11
REMARK    5  A    between atoms: _11  and  _12
REMARK    6  A    between atoms: _11  and  _14
REMARK    7  A    between atoms: _14  and  _15
REMARK    8  A    between atoms: _18  and  _20
REMARK    9  A    between atoms: _20  and  _21
REMARK   10  A    between atoms: _20  and  _23
REMARK   11  A    between atoms: _23  and  _24
REMARK   12  A    between atoms: _30  and  _32
REMARK   13  A    between atoms: _32  and  _33
REMARK   14  A    between atoms: _32  and  _35
REMARK   15  A    between atoms: _35  and  _36
REMARK   16  A    between atoms: _42  and  _44
REMARK   17  A    between atoms: _44  and  _45
REMARK   18  A    between atoms: _44  and  _47
REMARK   19  A    between atoms: _47  and  _48
REMARK   20  A    between atoms: _51  and  _53
REMARK   21  A    between atoms: _53  and  _54
REMARK   22  A    between atoms: _53  and  _56
REMARK   23  A    between atoms: _56  and  _57
REMARK   24  A    between atoms: _62  and  _64
REMARK   25  A    between atoms: _64  and  _65
REMARK   26  A    between atoms: _64  and  _67
REMARK   27  A    between atoms: _67  and  _68
REMARK   28  A    between atoms: _68  and  _69
REMARK   29  A    between atoms: _74  and  _76
REMARK   30  A    between atoms: _76  and  _77
REMARK   31  A    between atoms: _76  and  _79
REMARK   32  A    between atoms: _79  and  _80
REMARK   33  A    between atoms: _83  and  _85
REMARK   34  A    between atoms: _85  and  _86
REMARK   35  A    between atoms: _85  and  _88
REMARK   36  A    between atoms: _88  and  _89
REMARK   37  A    between atoms: _89  and  _90
REMARK   38  A    between atoms: _90  and  _91
REMARK   39  A    between atoms: _91  and  _92
REMARK   40  A    between atoms: _96  and  _98
REMARK   41  A    between atoms: _98  and  _99
REMARK   42  A    between atoms: _98  and  _101
REMARK   43  A    between atoms: _104  and  _106
REMARK   44  A    between atoms: _106  and  _107
REMARK   45  A    between atoms: _106  and  _109
REMARK   46  A    between atoms: _109  and  _110
REMARK   47  A    between atoms: _110  and  _111
REMARK   48  A    between atoms: _111  and  _112
REMARK   49  A    between atoms: _121  and  _123
REMARK   50  A    between atoms: _123  and  _124
REMARK   51  A    between atoms: _123  and  _126
REMARK   52  A    between atoms: _128  and  _130
REMARK   53  A    between atoms: _130  and  _131
REMARK   54  A    between atoms: _130  and  _133
REMARK   55  A    between atoms: _133  and  _134
REMARK   56  A    between atoms: _139  and  _140
REMARK   57  A    between atoms: _142  and  _144
REMARK   58  A    between atoms: _144  and  _145
REMARK   59  A    between atoms: _147  and  _149
REMARK   60  A    between atoms: _149  and  _150
REMARK   61  A    between atoms: _152  and  _154
REMARK   62  A    between atoms: _154  and  _155
REMARK   63  A    between atoms: _154  and  _157
REMARK   64  A    between atoms: _157  and  _158
REMARK   65  A    between atoms: _161  and  _163
REMARK   66  A    between atoms: _163  and  _164
REMARK   67  A    between atoms: _163  and  _166
REMARK   68  A    between atoms: _166  and  _167
REMARK   69  A    between atoms: _167  and  _168
REMARK   70  A    between atoms: _173  and  _175
REMARK   71  A    between atoms: _175  and  _176
REMARK   72  A    between atoms: _175  and  _178
REMARK   73  A    between atoms: _178  and  _179
REMARK   74  A    between atoms: _181  and  _183
REMARK   75  A    between atoms: _183  and  _184
REMARK   76  A    between atoms: _183  and  _186
REMARK   77  A    between atoms: _186  and  _187
REMARK   78  A    between atoms: _197  and  _199
REMARK   79  A    between atoms: _199  and  _200
REMARK   80  A    between atoms: _199  and  _202
REMARK   81  A    between atoms: _202  and  _203
REMARK   82  A    between atoms: _203  and  _204
REMARK   83  A    between atoms: _204  and  _205
REMARK   84  A    between atoms: _205  and  _206
REMARK   85  A    between atoms: _210  and  _212
REMARK   86  A    between atoms: _212  and  _213
REMARK   87  A    between atoms: _212  and  _215
REMARK   88  A    between atoms: _215  and  _216
REMARK   89  A    between atoms: _216  and  _217
REMARK   90  A    between atoms: _217  and  _218
REMARK   91  A    between atoms: _227  and  _229
REMARK   92  A    between atoms: _229  and  _230
REMARK   93  A    between atoms: _229  and  _232
REMARK   94  A    between atoms: _232  and  _233
REMARK   95  A    between atoms: _236  and  _238
REMARK   96  A    between atoms: _238  and  _239
REMARK   97  A    between atoms: _238  and  _241
REMARK   98  A    between atoms: _241  and  _242
REMARK   99  A    between atoms: _246  and  _247
REMARK  100  A    between atoms: _252  and  _254
REMARK  101  A    between atoms: _254  and  _255
REMARK  102  A    between atoms: _254  and  _257
REMARK  103  A    between atoms: _257  and  _258
REMARK  104  A    between atoms: _258  and  _259
REMARK  105  A    between atoms: _262  and  _264
REMARK  106  A    between atoms: _264  and  _265
REMARK  107  A    between atoms: _264  and  _267
REMARK  108  A    between atoms: _267  and  _268
REMARK  109  A    between atoms: _273  and  _275
REMARK  110  A    between atoms: _275  and  _276
REMARK  111  A    between atoms: _275  and  _278
REMARK  112  A    between atoms: _278  and  _279
REMARK  113  A    between atoms: _279  and  _280
REMARK  114  A    between atoms: _280  and  _281
REMARK  115  A    between atoms: _281  and  _282
REMARK  116  A    between atoms: _286  and  _288
REMARK  117  A    between atoms: _288  and  _289
REMARK  118  A    between atoms: _288  and  _291
REMARK  119  A    between atoms: _291  and  _292
REMARK  120  A    between atoms: _302  and  _304
REMARK  121  A    between atoms: _304  and  _305
REMARK  122  A    between atoms: _304  and  _307
REMARK  123  A    between atoms: _307  and  _308
REMARK                            x       y       z     vdW  Elec       q    Type
REMARK                         _______ _______ _______ _____ _____    ______ ____
ROOT
ATOM      1  O   HOH     1      74.596  65.405  16.193  0.00  0.00    +0.000 OA
ENDROOT
TORSDOF 0
REMARK  Name = ../refined-set-2016/3f7i/3f7i_pocket.pdb
REMARK  123 active torsions:
REMARK  status: ('A' for Active; 'I' for Inactive)
REMARK    1  A    between atoms: _1  and  _3
REMARK    2  A    between atoms: _3  and  _4
REMARK    3  A    between atoms: _3  and  _6
REMARK    4  A    between atoms: _9  and  _11
REMARK    5  A    between atoms: _11  and  _12
REMARK    6  A    between atoms: _11  and  _14
REMARK    7  A    between atoms: _14  and  _15
REMARK    8  A    between atoms: _18  and  _20
REMARK    9  A    between atoms: _20  and  _21
REMARK   10  A    between atoms: _20  and  _23
REMARK   11  A    between atoms: _23  and  _24
REMARK   12  A    between atoms: _30  and  _32
REMARK   13  A    between atoms: _32  and  _33
REMARK   14  A    between atoms: _32  and  _35
REMARK   15  A    between atoms: _35  and  _36
REMARK   16  A    between atoms: _42  and  _44
REMARK   17  A    between atoms: _44  and  _45
REMARK   18  A    between atoms: _44  and  _47
REMARK   19  A    between atoms: _47  and  _48
REMARK   20  A    between atoms: _51  and  _53
REMARK   21  A    between atoms: _53  and  _54
REMARK   22  A    between atoms: _53  and  _56
REMARK   23  A    between atoms: _56  and  _57
REMARK   24  A    between atoms: _62  and  _64
REMARK   25  A    between atoms: _64  and  _65
REMARK   26  A    between atoms: _64  and  _67
REMARK   27  A    between atoms: _67  and  _68
REMARK   28  A    between atoms: _68  and  _69
REMARK   29  A    between atoms: _74  and  _76
REMARK   30  A    between atoms: _76  and  _77
REMARK   31  A    between atoms: _76  and  _79
REMARK   32  A    between atoms: _79  and  _80
REMARK   33  A    between atoms: _83  and  _85
REMARK   34  A    between atoms: _85  and  _86
REMARK   35  A    between atoms: _85  and  _88
REMARK   36  A    between atoms: _88  and  _89
REMARK   37  A    between atoms: _89  and  _90
REMARK   38  A    between atoms: _90  and  _91
REMARK   39  A    between atoms: _91  and  _92
REMARK   40  A    between atoms: _96  and  _98
REMARK   41  A    between atoms: _98  and  _99
REMARK   42  A    between atoms: _98  and  _101
REMARK   43  A    between atoms: _104  and  _106
REMARK   44  A    between atoms: _106  and  _107
REMARK   45  A    between atoms: _106  and  _109
REMARK   46  A    between atoms: _109  and  _110
REMARK   47  A    between atoms: _110  and  _111
REMARK   48  A    between atoms: _111  and  _112
REMARK   49  A    between atoms: _121  and  _123
REMARK   50  A    between atoms: _123  and  _124
REMARK   51  A    between atoms: _123  and  _126
REMARK   52  A    between atoms: _128  and  _130
REMARK   53  A    between atoms: _130  and  _131
REMARK   54  A    between atoms: _130  and  _133
REMARK   55  A    between atoms: _133  and  _134
REMARK   56  A    between atoms: _139  and  _140
REMARK   57  A    between atoms: _142  and  _144
REMARK   58  A    between atoms: _144  and  _145
REMARK   59  A    between atoms: _147  and  _149
REMARK   60  A    between atoms: _149  and  _150
REMARK   61  A    between atoms: _152  and  _154
REMARK   62  A    between atoms: _154  and  _155
REMARK   63  A    between atoms: _154  and  _157
REMARK   64  A    between atoms: _157  and  _158
REMARK   65  A    between atoms: _161  and  _163
REMARK   66  A    between atoms: _163  and  _164
REMARK   67  A    between atoms: _163  and  _166
REMARK   68  A    between atoms: _166  and  _167
REMARK   69  A    between atoms: _167  and  _168
REMARK   70  A    between atoms: _173  and  _175
REMARK   71  A    between atoms: _175  and  _176
REMARK   72  A    between atoms: _175  and  _178
REMARK   73  A    between atoms: _178  and  _179
REMARK   74  A    between atoms: _181  and  _183
REMARK   75  A    between atoms: _183  and  _184
REMARK   76  A    between atoms: _183  and  _186
REMARK   77  A    between atoms: _186  and  _187
REMARK   78  A    between atoms: _197  and  _199
REMARK   79  A    between atoms: _199  and  _200
REMARK   80  A    between atoms: _199  and  _202
REMARK   81  A    between atoms: _202  and  _203
REMARK   82  A    between atoms: _203  and  _204
REMARK   83  A    between atoms: _204  and  _205
REMARK   84  A    between atoms: _205  and  _206
REMARK   85  A    between atoms: _210  and  _212
REMARK   86  A    between atoms: _212  and  _213
REMARK   87  A    between atoms: _212  and  _215
REMARK   88  A    between atoms: _215  and  _216
REMARK   89  A    between atoms: _216  and  _217
REMARK   90  A    between atoms: _217  and  _218
REMARK   91  A    between atoms: _227  and  _229
REMARK   92  A    between atoms: _229  and  _230
REMARK   93  A    between atoms: _229  and  _232
REMARK   94  A    between atoms: _232  and  _233
REMARK   95  A    between atoms: _236  and  _238
REMARK   96  A    between atoms: _238  and  _239
REMARK   97  A    between atoms: _238  and  _241
REMARK   98  A    between atoms: _241  and  _242
REMARK   99  A    between atoms: _246  and  _247
REMARK  100  A    between atoms: _252  and  _254
REMARK  101  A    between atoms: _254  and  _255
REMARK  102  A    between atoms: _254  and  _257
REMARK  103  A    between atoms: _257  and  _258
REMARK  104  A    between atoms: _258  and  _259
REMARK  105  A    between atoms: _262  and  _264
REMARK  106  A    between atoms: _264  and  _265
REMARK  107  A    between atoms: _264  and  _267
REMARK  108  A    between atoms: _267  and  _268
REMARK  109  A    between atoms: _273  and  _275
REMARK  110  A    between atoms: _275  and  _276
REMARK  111  A    between atoms: _275  and  _278
REMARK  112  A    between atoms: _278  and  _279
REMARK  113  A    between atoms: _279  and  _280
REMARK  114  A    between atoms: _280  and  _281
REMARK  115  A    between atoms: _281  and  _282
REMARK  116  A    between atoms: _286  and  _288
REMARK  117  A    between atoms: _288  and  _289
REMARK  118  A    between atoms: _288  and  _291
REMARK  119  A    between atoms: _291  and  _292
REMARK  120  A    between atoms: _302  and  _304
REMARK  121  A    between atoms: _304  and  _305
REMARK  122  A    between atoms: _304  and  _307
REMARK  123  A    between atoms: _307  and  _308
REMARK                            x       y       z     vdW  Elec       q    Type
REMARK                         _______ _______ _______ _____ _____    ______ ____
ROOT
ATOM      1  O   HOH     1      72.756  57.330  17.480  0.00  0.00    +0.000 OA
ENDROOT
TORSDOF 0
REMARK  Name = ../refined-set-2016/3f7i/3f7i_pocket.pdb
REMARK  123 active torsions:
REMARK  status: ('A' for Active; 'I' for Inactive)
REMARK    1  A    between atoms: _1  and  _3
REMARK    2  A    between atoms: _3  and  _4
REMARK    3  A    between atoms: _3  and  _6
REMARK    4  A    between atoms: _9  and  _11
REMARK    5  A    between atoms: _11  and  _12
REMARK    6  A    between atoms: _11  and  _14
REMARK    7  A    between atoms: _14  and  _15
REMARK    8  A    between atoms: _18  and  _20
REMARK    9  A    between atoms: _20  and  _21
REMARK   10  A    between atoms: _20  and  _23
REMARK   11  A    between atoms: _23  and  _24
REMARK   12  A    between atoms: _30  and  _32
REMARK   13  A    between atoms: _32  and  _33
REMARK   14  A    between atoms: _32  and  _35
REMARK   15  A    between atoms: _35  and  _36
REMARK   16  A    between atoms: _42  and  _44
REMARK   17  A    between atoms: _44  and  _45
REMARK   18  A    between atoms: _44  and  _47
REMARK   19  A    between atoms: _47  and  _48
REMARK   20  A    between atoms: _51  and  _53
REMARK   21  A    between atoms: _53  and  _54
REMARK   22  A    between atoms: _53  and  _56
REMARK   23  A    between atoms: _56  and  _57
REMARK   24  A    between atoms: _62  and  _64
REMARK   25  A    between atoms: _64  and  _65
REMARK   26  A    between atoms: _64  and  _67
REMARK   27  A    between atoms: _67  and  _68
REMARK   28  A    between atoms: _68  and  _69
REMARK   29  A    between atoms: _74  and  _76
REMARK   30  A    between atoms: _76  and  _77
REMARK   31  A    between atoms: _76  and  _79
REMARK   32  A    between atoms: _79  and  _80
REMARK   33  A    between atoms: _83  and  _85
REMARK   34  A    between atoms: _85  and  _86
REMARK   35  A    between atoms: _85  and  _88
REMARK   36  A    between atoms: _88  and  _89
REMARK   37  A    between atoms: _89  and  _90
REMARK   38  A    between atoms: _90  and  _91
REMARK   39  A    between atoms: _91  and  _92
REMARK   40  A    between atoms: _96  and  _98
REMARK   41  A    between atoms: _98  and  _99
REMARK   42  A    between atoms: _98  and  _101
REMARK   43  A    between atoms: _104  and  _106
REMARK   44  A    between atoms: _106  and  _107
REMARK   45  A    between atoms: _106  and  _109
REMARK   46  A    between atoms: _109  and  _110
REMARK   47  A    between atoms: _110  and  _111
REMARK   48  A    between atoms: _111  and  _112
REMARK   49  A    between atoms: _121  and  _123
REMARK   50  A    between atoms: _123  and  _124
REMARK   51  A    between atoms: _123  and  _126
REMARK   52  A    between atoms: _128  and  _130
REMARK   53  A    between atoms: _130  and  _131
REMARK   54  A    between atoms: _130  and  _133
REMARK   55  A    between atoms: _133  and  _134
REMARK   56  A    between atoms: _139  and  _140
REMARK   57  A    between atoms: _142  and  _144
REMARK   58  A    between atoms: _144  and  _145
REMARK   59  A    between atoms: _147  and  _149
REMARK   60  A    between atoms: _149  and  _150
REMARK   61  A    between atoms: _152  and  _154
REMARK   62  A    between atoms: _154  and  _155
REMARK   63  A    between atoms: _154  and  _157
REMARK   64  A    between atoms: _157  and  _158
REMARK   65  A    between atoms: _161  and  _163
REMARK   66  A    between atoms: _163  and  _164
REMARK   67  A    between atoms: _163  and  _166
REMARK   68  A    between atoms: _166  and  _167
REMARK   69  A    between atoms: _167  and  _168
REMARK   70  A    between atoms: _173  and  _175
REMARK   71  A    between atoms: _175  and  _176
REMARK   72  A    between atoms: _175  and  _178
REMARK   73  A    between atoms: _178  and  _179
REMARK   74  A    between atoms: _181  and  _183
REMARK   75  A    between atoms: _183  and  _184
REMARK   76  A    between atoms: _183  and  _186
REMARK   77  A    between atoms: _186  and  _187
REMARK   78  A    between atoms: _197  and  _199
REMARK   79  A    between atoms: _199  and  _200
REMARK   80  A    between atoms: _199  and  _202
REMARK   81  A    between atoms: _202  and  _203
REMARK   82  A    between atoms: _203  and  _204
REMARK   83  A    between atoms: _204  and  _205
REMARK   84  A    between atoms: _205  and  _206
REMARK   85  A    between atoms: _210  and  _212
REMARK   86  A    between atoms: _212  and  _213
REMARK   87  A    between atoms: _212  and  _215
REMARK   88  A    between atoms: _215  and  _216
REMARK   89  A    between atoms: _216  and  _217
REMARK   90  A    between atoms: _217  and  _218
REMARK   91  A    between atoms: _227  and  _229
REMARK   92  A    between atoms: _229  and  _230
REMARK   93  A    between atoms: _229  and  _232
REMARK   94  A    between atoms: _232  and  _233
REMARK   95  A    between atoms: _236  and  _238
REMARK   96  A    between atoms: _238  and  _239
REMARK   97  A    between atoms: _238  and  _241
REMARK   98  A    between atoms: _241  and  _242
REMARK   99  A    between atoms: _246  and  _247
REMARK  100  A    between atoms: _252  and  _254
REMARK  101  A    between atoms: _254  and  _255
REMARK  102  A    between atoms: _254  and  _257
REMARK  103  A    between atoms: _257  and  _258
REMARK  104  A    between atoms: _258  and  _259
REMARK  105  A    between atoms: _262  and  _264
REMARK  106  A    between atoms: _264  and  _265
REMARK  107  A    between atoms: _264  and  _267
REMARK  108  A    between atoms: _267  and  _268
REMARK  109  A    between atoms: _273  and  _275
REMARK  110  A    between atoms: _275  and  _276
REMARK  111  A    between atoms: _275  and  _278
REMARK  112  A    between atoms: _278  and  _279
REMARK  113  A    between atoms: _279  and  _280
REMARK  114  A    between atoms: _280  and  _281
REMARK  115  A    between atoms: _281  and  _282
REMARK  116  A    between atoms: _286  and  _288
REMARK  117  A    between atoms: _288  and  _289
REMARK  118  A    between atoms: _288  and  _291
REMARK  119  A    between atoms: _291  and  _292
REMARK  120  A    between atoms: _302  and  _304
REMARK  121  A    between atoms: _304  and  _305
REMARK  122  A    between atoms: _304  and  _307
REMARK  123  A    between atoms: _307  and  _308
REMARK                            x       y       z     vdW  Elec       q    Type
REMARK                         _______ _______ _______ _____ _____    ______ ____
ROOT
ATOM      1  O   HOH     1      72.773  66.118  17.539  0.00  0.00    +0.000 OA
ENDROOT
TORSDOF 0
REMARK  Name = ../refined-set-2016/3f7i/3f7i_pocket.pdb
REMARK  123 active torsions:
REMARK  status: ('A' for Active; 'I' for Inactive)
REMARK    1  A    between atoms: _1  and  _3
REMARK    2  A    between atoms: _3  and  _4
REMARK    3  A    between atoms: _3  and  _6
REMARK    4  A    between atoms: _9  and  _11
REMARK    5  A    between atoms: _11  and  _12
REMARK    6  A    between atoms: _11  and  _14
REMARK    7  A    between atoms: _14  and  _15
REMARK    8  A    between atoms: _18  and  _20
REMARK    9  A    between atoms: _20  and  _21
REMARK   10  A    between atoms: _20  and  _23
REMARK   11  A    between atoms: _23  and  _24
REMARK   12  A    between atoms: _30  and  _32
REMARK   13  A    between atoms: _32  and  _33
REMARK   14  A    between atoms: _32  and  _35
REMARK   15  A    between atoms: _35  and  _36
REMARK   16  A    between atoms: _42  and  _44
REMARK   17  A    between atoms: _44  and  _45
REMARK   18  A    between atoms: _44  and  _47
REMARK   19  A    between atoms: _47  and  _48
REMARK   20  A    between atoms: _51  and  _53
REMARK   21  A    between atoms: _53  and  _54
REMARK   22  A    between atoms: _53  and  _56
REMARK   23  A    between atoms: _56  and  _57
REMARK   24  A    between atoms: _62  and  _64
REMARK   25  A    between atoms: _64  and  _65
REMARK   26  A    between atoms: _64  and  _67
REMARK   27  A    between atoms: _67  and  _68
REMARK   28  A    between atoms: _68  and  _69
REMARK   29  A    between atoms: _74  and  _76
REMARK   30  A    between atoms: _76  and  _77
REMARK   31  A    between atoms: _76  and  _79
REMARK   32  A    between atoms: _79  and  _80
REMARK   33  A    between atoms: _83  and  _85
REMARK   34  A    between atoms: _85  and  _86
REMARK   35  A    between atoms: _85  and  _88
REMARK   36  A    between atoms: _88  and  _89
REMARK   37  A    between atoms: _89  and  _90
REMARK   38  A    between atoms: _90  and  _91
REMARK   39  A    between atoms: _91  and  _92
REMARK   40  A    between atoms: _96  and  _98
REMARK   41  A    between atoms: _98  and  _99
REMARK   42  A    between atoms: _98  and  _101
REMARK   43  A    between atoms: _104  and  _106
REMARK   44  A    between atoms: _106  and  _107
REMARK   45  A    between atoms: _106  and  _109
REMARK   46  A    between atoms: _109  and  _110
REMARK   47  A    between atoms: _110  and  _111
REMARK   48  A    between atoms: _111  and  _112
REMARK   49  A    between atoms: _121  and  _123
REMARK   50  A    between atoms: _123  and  _124
REMARK   51  A    between atoms: _123  and  _126
REMARK   52  A    between atoms: _128  and  _130
REMARK   53  A    between atoms: _130  and  _131
REMARK   54  A    between atoms: _130  and  _133
REMARK   55  A    between atoms: _133  and  _134
REMARK   56  A    between atoms: _139  and  _140
REMARK   57  A    between atoms: _142  and  _144
REMARK   58  A    between atoms: _144  and  _145
REMARK   59  A    between atoms: _147  and  _149
REMARK   60  A    between atoms: _149  and  _150
REMARK   61  A    between atoms: _152  and  _154
REMARK   62  A    between atoms: _154  and  _155
REMARK   63  A    between atoms: _154  and  _157
REMARK   64  A    between atoms: _157  and  _158
REMARK   65  A    between atoms: _161  and  _163
REMARK   66  A    between atoms: _163  and  _164
REMARK   67  A    between atoms: _163  and  _166
REMARK   68  A    between atoms: _166  and  _167
REMARK   69  A    between atoms: _167  and  _168
REMARK   70  A    between atoms: _173  and  _175
REMARK   71  A    between atoms: _175  and  _176
REMARK   72  A    between atoms: _175  and  _178
REMARK   73  A    between atoms: _178  and  _179
REMARK   74  A    between atoms: _181  and  _183
REMARK   75  A    between atoms: _183  and  _184
REMARK   76  A    between atoms: _183  and  _186
REMARK   77  A    between atoms: _186  and  _187
REMARK   78  A    between atoms: _197  and  _199
REMARK   79  A    between atoms: _199  and  _200
REMARK   80  A    between atoms: _199  and  _202
REMARK   81  A    between atoms: _202  and  _203
REMARK   82  A    between atoms: _203  and  _204
REMARK   83  A    between atoms: _204  and  _205
REMARK   84  A    between atoms: _205  and  _206
REMARK   85  A    between atoms: _210  and  _212
REMARK   86  A    between atoms: _212  and  _213
REMARK   87  A    between atoms: _212  and  _215
REMARK   88  A    between atoms: _215  and  _216
REMARK   89  A    between atoms: _216  and  _217
REMARK   90  A    between atoms: _217  and  _218
REMARK   91  A    between atoms: _227  and  _229
REMARK   92  A    between atoms: _229  and  _230
REMARK   93  A    between atoms: _229  and  _232
REMARK   94  A    between atoms: _232  and  _233
REMARK   95  A    between atoms: _236  and  _238
REMARK   96  A    between atoms: _238  and  _239
REMARK   97  A    between atoms: _238  and  _241
REMARK   98  A    between atoms: _241  and  _242
REMARK   99  A    between atoms: _246  and  _247
REMARK  100  A    between atoms: _252  and  _254
REMARK  101  A    between atoms: _254  and  _255
REMARK  102  A    between atoms: _254  and  _257
REMARK  103  A    between atoms: _257  and  _258
REMARK  104  A    between atoms: _258  and  _259
REMARK  105  A    between atoms: _262  and  _264
REMARK  106  A    between atoms: _264  and  _265
REMARK  107  A    between atoms: _264  and  _267
REMARK  108  A    between atoms: _267  and  _268
REMARK  109  A    between atoms: _273  and  _275
REMARK  110  A    between atoms: _275  and  _276
REMARK  111  A    between atoms: _275  and  _278
REMARK  112  A    between atoms: _278  and  _279
REMARK  113  A    between atoms: _279  and  _280
REMARK  114  A    between atoms: _280  and  _281
REMARK  115  A    between atoms: _281  and  _282
REMARK  116  A    between atoms: _286  and  _288
REMARK  117  A    between atoms: _288  and  _289
REMARK  118  A    between atoms: _288  and  _291
REMARK  119  A    between atoms: _291  and  _292
REMARK  120  A    between atoms: _302  and  _304
REMARK  121  A    between atoms: _304  and  _305
REMARK  122  A    between atoms: _304  and  _307
REMARK  123  A    between atoms: _307  and  _308
REMARK                            x       y       z     vdW  Elec       q    Type
REMARK                         _______ _______ _______ _____ _____    ______ ____
ROOT
ATOM      1  O   HOH     1      91.461  62.678  15.787  0.00  0.00    +0.000 OA
ENDROOT
TORSDOF 0
REMARK  Name = ../refined-set-2016/3f7i/3f7i_pocket.pdb
REMARK  123 active torsions:
REMARK  status: ('A' for Active; 'I' for Inactive)
REMARK    1  A    between atoms: _1  and  _3
REMARK    2  A    between atoms: _3  and  _4
REMARK    3  A    between atoms: _3  and  _6
REMARK    4  A    between atoms: _9  and  _11
REMARK    5  A    between atoms: _11  and  _12
REMARK    6  A    between atoms: _11  and  _14
REMARK    7  A    between atoms: _14  and  _15
REMARK    8  A    between atoms: _18  and  _20
REMARK    9  A    between atoms: _20  and  _21
REMARK   10  A    between atoms: _20  and  _23
REMARK   11  A    between atoms: _23  and  _24
REMARK   12  A    between atoms: _30  and  _32
REMARK   13  A    between atoms: _32  and  _33
REMARK   14  A    between atoms: _32  and  _35
REMARK   15  A    between atoms: _35  and  _36
REMARK   16  A    between atoms: _42  and  _44
REMARK   17  A    between atoms: _44  and  _45
REMARK   18  A    between atoms: _44  and  _47
REMARK   19  A    between atoms: _47  and  _48
REMARK   20  A    between atoms: _51  and  _53
REMARK   21  A    between atoms: _53  and  _54
REMARK   22  A    between atoms: _53  and  _56
REMARK   23  A    between atoms: _56  and  _57
REMARK   24  A    between atoms: _62  and  _64
REMARK   25  A    between atoms: _64  and  _65
REMARK   26  A    between atoms: _64  and  _67
REMARK   27  A    between atoms: _67  and  _68
REMARK   28  A    between atoms: _68  and  _69
REMARK   29  A    between atoms: _74  and  _76
REMARK   30  A    between atoms: _76  and  _77
REMARK   31  A    between atoms: _76  and  _79
REMARK   32  A    between atoms: _79  and  _80
REMARK   33  A    between atoms: _83  and  _85
REMARK   34  A    between atoms: _85  and  _86
REMARK   35  A    between atoms: _85  and  _88
REMARK   36  A    between atoms: _88  and  _89
REMARK   37  A    between atoms: _89  and  _90
REMARK   38  A    between atoms: _90  and  _91
REMARK   39  A    between atoms: _91  and  _92
REMARK   40  A    between atoms: _96  and  _98
REMARK   41  A    between atoms: _98  and  _99
REMARK   42  A    between atoms: _98  and  _101
REMARK   43  A    between atoms: _104  and  _106
REMARK   44  A    between atoms: _106  and  _107
REMARK   45  A    between atoms: _106  and  _109
REMARK   46  A    between atoms: _109  and  _110
REMARK   47  A    between atoms: _110  and  _111
REMARK   48  A    between atoms: _111  and  _112
REMARK   49  A    between atoms: _121  and  _123
REMARK   50  A    between atoms: _123  and  _124
REMARK   51  A    between atoms: _123  and  _126
REMARK   52  A    between atoms: _128  and  _130
REMARK   53  A    between atoms: _130  and  _131
REMARK   54  A    between atoms: _130  and  _133
REMARK   55  A    between atoms: _133  and  _134
REMARK   56  A    between atoms: _139  and  _140
REMARK   57  A    between atoms: _142  and  _144
REMARK   58  A    between atoms: _144  and  _145
REMARK   59  A    between atoms: _147  and  _149
REMARK   60  A    between atoms: _149  and  _150
REMARK   61  A    between atoms: _152  and  _154
REMARK   62  A    between atoms: _154  and  _155
REMARK   63  A    between atoms: _154  and  _157
REMARK   64  A    between atoms: _157  and  _158
REMARK   65  A    between atoms: _161  and  _163
REMARK   66  A    between atoms: _163  and  _164
REMARK   67  A    between atoms: _163  and  _166
REMARK   68  A    between atoms: _166  and  _167
REMARK   69  A    between atoms: _167  and  _168
REMARK   70  A    between atoms: _173  and  _175
REMARK   71  A    between atoms: _175  and  _176
REMARK   72  A    between atoms: _175  and  _178
REMARK   73  A    between atoms: _178  and  _179
REMARK   74  A    between atoms: _181  and  _183
REMARK   75  A    between atoms: _183  and  _184
REMARK   76  A    between atoms: _183  and  _186
REMARK   77  A    between atoms: _186  and  _187
REMARK   78  A    between atoms: _197  and  _199
REMARK   79  A    between atoms: _199  and  _200
REMARK   80  A    between atoms: _199  and  _202
REMARK   81  A    between atoms: _202  and  _203
REMARK   82  A    between atoms: _203  and  _204
REMARK   83  A    between atoms: _204  and  _205
REMARK   84  A    between atoms: _205  and  _206
REMARK   85  A    between atoms: _210  and  _212
REMARK   86  A    between atoms: _212  and  _213
REMARK   87  A    between atoms: _212  and  _215
REMARK   88  A    between atoms: _215  and  _216
REMARK   89  A    between atoms: _216  and  _217
REMARK   90  A    between atoms: _217  and  _218
REMARK   91  A    between atoms: _227  and  _229
REMARK   92  A    between atoms: _229  and  _230
REMARK   93  A    between atoms: _229  and  _232
REMARK   94  A    between atoms: _232  and  _233
REMARK   95  A    between atoms: _236  and  _238
REMARK   96  A    between atoms: _238  and  _239
REMARK   97  A    between atoms: _238  and  _241
REMARK   98  A    between atoms: _241  and  _242
REMARK   99  A    between atoms: _246  and  _247
REMARK  100  A    between atoms: _252  and  _254
REMARK  101  A    between atoms: _254  and  _255
REMARK  102  A    between atoms: _254  and  _257
REMARK  103  A    between atoms: _257  and  _258
REMARK  104  A    between atoms: _258  and  _259
REMARK  105  A    between atoms: _262  and  _264
REMARK  106  A    between atoms: _264  and  _265
REMARK  107  A    between atoms: _264  and  _267
REMARK  108  A    between atoms: _267  and  _268
REMARK  109  A    between atoms: _273  and  _275
REMARK  110  A    between atoms: _275  and  _276
REMARK  111  A    between atoms: _275  and  _278
REMARK  112  A    between atoms: _278  and  _279
REMARK  113  A    between atoms: _279  and  _280
REMARK  114  A    between atoms: _280  and  _281
REMARK  115  A    between atoms: _281  and  _282
REMARK  116  A    between atoms: _286  and  _288
REMARK  117  A    between atoms: _288  and  _289
REMARK  118  A    between atoms: _288  and  _291
REMARK  119  A    between atoms: _291  and  _292
REMARK  120  A    between atoms: _302  and  _304
REMARK  121  A    between atoms: _304  and  _305
REMARK  122  A    between atoms: _304  and  _307
REMARK  123  A    between atoms: _307  and  _308
REMARK                            x       y       z     vdW  Elec       q    Type
REMARK                         _______ _______ _______ _____ _____    ______ ____
ROOT
ATOM      1  O   HOH     1      72.121  64.498  23.059  0.00  0.00    +0.000 OA
ENDROOT
TORSDOF 0
REMARK  Name = ../refined-set-2016/3f7i/3f7i_pocket.pdb
REMARK  123 active torsions:
REMARK  status: ('A' for Active; 'I' for Inactive)
REMARK    1  A    between atoms: _1  and  _3
REMARK    2  A    between atoms: _3  and  _4
REMARK    3  A    between atoms: _3  and  _6
REMARK    4  A    between atoms: _9  and  _11
REMARK    5  A    between atoms: _11  and  _12
REMARK    6  A    between atoms: _11  and  _14
REMARK    7  A    between atoms: _14  and  _15
REMARK    8  A    between atoms: _18  and  _20
REMARK    9  A    between atoms: _20  and  _21
REMARK   10  A    between atoms: _20  and  _23
REMARK   11  A    between atoms: _23  and  _24
REMARK   12  A    between atoms: _30  and  _32
REMARK   13  A    between atoms: _32  and  _33
REMARK   14  A    between atoms: _32  and  _35
REMARK   15  A    between atoms: _35  and  _36
REMARK   16  A    between atoms: _42  and  _44
REMARK   17  A    between atoms: _44  and  _45
REMARK   18  A    between atoms: _44  and  _47
REMARK   19  A    between atoms: _47  and  _48
REMARK   20  A    between atoms: _51  and  _53
REMARK   21  A    between atoms: _53  and  _54
REMARK   22  A    between atoms: _53  and  _56
REMARK   23  A    between atoms: _56  and  _57
REMARK   24  A    between atoms: _62  and  _64
REMARK   25  A    between atoms: _64  and  _65
REMARK   26  A    between atoms: _64  and  _67
REMARK   27  A    between atoms: _67  and  _68
REMARK   28  A    between atoms: _68  and  _69
REMARK   29  A    between atoms: _74  and  _76
REMARK   30  A    between atoms: _76  and  _77
REMARK   31  A    between atoms: _76  and  _79
REMARK   32  A    between atoms: _79  and  _80
REMARK   33  A    between atoms: _83  and  _85
REMARK   34  A    between atoms: _85  and  _86
REMARK   35  A    between atoms: _85  and  _88
REMARK   36  A    between atoms: _88  and  _89
REMARK   37  A    between atoms: _89  and  _90
REMARK   38  A    between atoms: _90  and  _91
REMARK   39  A    between atoms: _91  and  _92
REMARK   40  A    between atoms: _96  and  _98
REMARK   41  A    between atoms: _98  and  _99
REMARK   42  A    between atoms: _98  and  _101
REMARK   43  A    between atoms: _104  and  _106
REMARK   44  A    between atoms: _106  and  _107
REMARK   45  A    between atoms: _106  and  _109
REMARK   46  A    between atoms: _109  and  _110
REMARK   47  A    between atoms: _110  and  _111
REMARK   48  A    between atoms: _111  and  _112
REMARK   49  A    between atoms: _121  and  _123
REMARK   50  A    between atoms: _123  and  _124
REMARK   51  A    between atoms: _123  and  _126
REMARK   52  A    between atoms: _128  and  _130
REMARK   53  A    between atoms: _130  and  _131
REMARK   54  A    between atoms: _130  and  _133
REMARK   55  A    between atoms: _133  and  _134
REMARK   56  A    between atoms: _139  and  _140
REMARK   57  A    between atoms: _142  and  _144
REMARK   58  A    between atoms: _144  and  _145
REMARK   59  A    between atoms: _147  and  _149
REMARK   60  A    between atoms: _149  and  _150
REMARK   61  A    between atoms: _152  and  _154
REMARK   62  A    between atoms: _154  and  _155
REMARK   63  A    between atoms: _154  and  _157
REMARK   64  A    between atoms: _157  and  _158
REMARK   65  A    between atoms: _161  and  _163
REMARK   66  A    between atoms: _163  and  _164
REMARK   67  A    between atoms: _163  and  _166
REMARK   68  A    between atoms: _166  and  _167
REMARK   69  A    between atoms: _167  and  _168
REMARK   70  A    between atoms: _173  and  _175
REMARK   71  A    between atoms: _175  and  _176
REMARK   72  A    between atoms: _175  and  _178
REMARK   73  A    between atoms: _178  and  _179
REMARK   74  A    between atoms: _181  and  _183
REMARK   75  A    between atoms: _183  and  _184
REMARK   76  A    between atoms: _183  and  _186
REMARK   77  A    between atoms: _186  and  _187
REMARK   78  A    between atoms: _197  and  _199
REMARK   79  A    between atoms: _199  and  _200
REMARK   80  A    between atoms: _199  and  _202
REMARK   81  A    between atoms: _202  and  _203
REMARK   82  A    between atoms: _203  and  _204
REMARK   83  A    between atoms: _204  and  _205
REMARK   84  A    between atoms: _205  and  _206
REMARK   85  A    between atoms: _210  and  _212
REMARK   86  A    between atoms: _212  and  _213
REMARK   87  A    between atoms: _212  and  _215
REMARK   88  A    between atoms: _215  and  _216
REMARK   89  A    between atoms: _216  and  _217
REMARK   90  A    between atoms: _217  and  _218
REMARK   91  A    between atoms: _227  and  _229
REMARK   92  A    between atoms: _229  and  _230
REMARK   93  A    between atoms: _229  and  _232
REMARK   94  A    between atoms: _232  and  _233
REMARK   95  A    between atoms: _236  and  _238
REMARK   96  A    between atoms: _238  and  _239
REMARK   97  A    between atoms: _238  and  _241
REMARK   98  A    between atoms: _241  and  _242
REMARK   99  A    between atoms: _246  and  _247
REMARK  100  A    between atoms: _252  and  _254
REMARK  101  A    between atoms: _254  and  _255
REMARK  102  A    between atoms: _254  and  _257
REMARK  103  A    between atoms: _257  and  _258
REMARK  104  A    between atoms: _258  and  _259
REMARK  105  A    between atoms: _262  and  _264
REMARK  106  A    between atoms: _264  and  _265
REMARK  107  A    between atoms: _264  and  _267
REMARK  108  A    between atoms: _267  and  _268
REMARK  109  A    between atoms: _273  and  _275
REMARK  110  A    between atoms: _275  and  _276
REMARK  111  A    between atoms: _275  and  _278
REMARK  112  A    between atoms: _278  and  _279
REMARK  113  A    between atoms: _279  and  _280
REMARK  114  A    between atoms: _280  and  _281
REMARK  115  A    between atoms: _281  and  _282
REMARK  116  A    between atoms: _286  and  _288
REMARK  117  A    between atoms: _288  and  _289
REMARK  118  A    between atoms: _288  and  _291
REMARK  119  A    between atoms: _291  and  _292
REMARK  120  A    between atoms: _302  and  _304
REMARK  121  A    between atoms: _304  and  _305
REMARK  122  A    between atoms: _304  and  _307
REMARK  123  A    between atoms: _307  and  _308
REMARK                            x       y       z     vdW  Elec       q    Type
REMARK                         _______ _______ _______ _____ _____    ______ ____
ROOT
ATOM      1  O   HOH     1      83.735  56.021  14.113  0.00  0.00    +0.000 OA
ENDROOT
TORSDOF 0
REMARK  Name = ../refined-set-2016/3f7i/3f7i_pocket.pdb
REMARK  123 active torsions:
REMARK  status: ('A' for Active; 'I' for Inactive)
REMARK    1  A    between atoms: _1  and  _3
REMARK    2  A    between atoms: _3  and  _4
REMARK    3  A    between atoms: _3  and  _6
REMARK    4  A    between atoms: _9  and  _11
REMARK    5  A    between atoms: _11  and  _12
REMARK    6  A    between atoms: _11  and  _14
REMARK    7  A    between atoms: _14  and  _15
REMARK    8  A    between atoms: _18  and  _20
REMARK    9  A    between atoms: _20  and  _21
REMARK   10  A    between atoms: _20  and  _23
REMARK   11  A    between atoms: _23  and  _24
REMARK   12  A    between atoms: _30  and  _32
REMARK   13  A    between atoms: _32  and  _33
REMARK   14  A    between atoms: _32  and  _35
REMARK   15  A    between atoms: _35  and  _36
REMARK   16  A    between atoms: _42  and  _44
REMARK   17  A    between atoms: _44  and  _45
REMARK   18  A    between atoms: _44  and  _47
REMARK   19  A    between atoms: _47  and  _48
REMARK   20  A    between atoms: _51  and  _53
REMARK   21  A    between atoms: _53  and  _54
REMARK   22  A    between atoms: _53  and  _56
REMARK   23  A    between atoms: _56  and  _57
REMARK   24  A    between atoms: _62  and  _64
REMARK   25  A    between atoms: _64  and  _65
REMARK   26  A    between atoms: _64  and  _67
REMARK   27  A    between atoms: _67  and  _68
REMARK   28  A    between atoms: _68  and  _69
REMARK   29  A    between atoms: _74  and  _76
REMARK   30  A    between atoms: _76  and  _77
REMARK   31  A    between atoms: _76  and  _79
REMARK   32  A    between atoms: _79  and  _80
REMARK   33  A    between atoms: _83  and  _85
REMARK   34  A    between atoms: _85  and  _86
REMARK   35  A    between atoms: _85  and  _88
REMARK   36  A    between atoms: _88  and  _89
REMARK   37  A    between atoms: _89  and  _90
REMARK   38  A    between atoms: _90  and  _91
REMARK   39  A    between atoms: _91  and  _92
REMARK   40  A    between atoms: _96  and  _98
REMARK   41  A    between atoms: _98  and  _99
REMARK   42  A    between atoms: _98  and  _101
REMARK   43  A    between atoms: _104  and  _106
REMARK   44  A    between atoms: _106  and  _107
REMARK   45  A    between atoms: _106  and  _109
REMARK   46  A    between atoms: _109  and  _110
REMARK   47  A    between atoms: _110  and  _111
REMARK   48  A    between atoms: _111  and  _112
REMARK   49  A    between atoms: _121  and  _123
REMARK   50  A    between atoms: _123  and  _124
REMARK   51  A    between atoms: _123  and  _126
REMARK   52  A    between atoms: _128  and  _130
REMARK   53  A    between atoms: _130  and  _131
REMARK   54  A    between atoms: _130  and  _133
REMARK   55  A    between atoms: _133  and  _134
REMARK   56  A    between atoms: _139  and  _140
REMARK   57  A    between atoms: _142  and  _144
REMARK   58  A    between atoms: _144  and  _145
REMARK   59  A    between atoms: _147  and  _149
REMARK   60  A    between atoms: _149  and  _150
REMARK   61  A    between atoms: _152  and  _154
REMARK   62  A    between atoms: _154  and  _155
REMARK   63  A    between atoms: _154  and  _157
REMARK   64  A    between atoms: _157  and  _158
REMARK   65  A    between atoms: _161  and  _163
REMARK   66  A    between atoms: _163  and  _164
REMARK   67  A    between atoms: _163  and  _166
REMARK   68  A    between atoms: _166  and  _167
REMARK   69  A    between atoms: _167  and  _168
REMARK   70  A    between atoms: _173  and  _175
REMARK   71  A    between atoms: _175  and  _176
REMARK   72  A    between atoms: _175  and  _178
REMARK   73  A    between atoms: _178  and  _179
REMARK   74  A    between atoms: _181  and  _183
REMARK   75  A    between atoms: _183  and  _184
REMARK   76  A    between atoms: _183  and  _186
REMARK   77  A    between atoms: _186  and  _187
REMARK   78  A    between atoms: _197  and  _199
REMARK   79  A    between atoms: _199  and  _200
REMARK   80  A    between atoms: _199  and  _202
REMARK   81  A    between atoms: _202  and  _203
REMARK   82  A    between atoms: _203  and  _204
REMARK   83  A    between atoms: _204  and  _205
REMARK   84  A    between atoms: _205  and  _206
REMARK   85  A    between atoms: _210  and  _212
REMARK   86  A    between atoms: _212  and  _213
REMARK   87  A    between atoms: _212  and  _215
REMARK   88  A    between atoms: _215  and  _216
REMARK   89  A    between atoms: _216  and  _217
REMARK   90  A    between atoms: _217  and  _218
REMARK   91  A    between atoms: _227  and  _229
REMARK   92  A    between atoms: _229  and  _230
REMARK   93  A    between atoms: _229  and  _232
REMARK   94  A    between atoms: _232  and  _233
REMARK   95  A    between atoms: _236  and  _238
REMARK   96  A    between atoms: _238  and  _239
REMARK   97  A    between atoms: _238  and  _241
REMARK   98  A    between atoms: _241  and  _242
REMARK   99  A    between atoms: _246  and  _247
REMARK  100  A    between atoms: _252  and  _254
REMARK  101  A    between atoms: _254  and  _255
REMARK  102  A    between atoms: _254  and  _257
REMARK  103  A    between atoms: _257  and  _258
REMARK  104  A    between atoms: _258  and  _259
REMARK  105  A    between atoms: _262  and  _264
REMARK  106  A    between atoms: _264  and  _265
REMARK  107  A    between atoms: _264  and  _267
REMARK  108  A    between atoms: _267  and  _268
REMARK  109  A    between atoms: _273  and  _275
REMARK  110  A    between atoms: _275  and  _276
REMARK  111  A    between atoms: _275  and  _278
REMARK  112  A    between atoms: _278  and  _279
REMARK  113  A    between atoms: _279  and  _280
REMARK  114  A    between atoms: _280  and  _281
REMARK  115  A    between atoms: _281  and  _282
REMARK  116  A    between atoms: _286  and  _288
REMARK  117  A    between atoms: _288  and  _289
REMARK  118  A    between atoms: _288  and  _291
REMARK  119  A    between atoms: _291  and  _292
REMARK  120  A    between atoms: _302  and  _304
REMARK  121  A    between atoms: _304  and  _305
REMARK  122  A    between atoms: _304  and  _307
REMARK  123  A    between atoms: _307  and  _308
REMARK                            x       y       z     vdW  Elec       q    Type
REMARK                         _______ _______ _______ _____ _____    ______ ____
ROOT
ATOM      1  O   HOH     1      72.787  61.970  23.740  0.00  0.00    +0.000 OA
ENDROOT
TORSDOF 0
REMARK  Name = ../refined-set-2016/3f7i/3f7i_pocket.pdb
REMARK  123 active torsions:
REMARK  status: ('A' for Active; 'I' for Inactive)
REMARK    1  A    between atoms: _1  and  _3
REMARK    2  A    between atoms: _3  and  _4
REMARK    3  A    between atoms: _3  and  _6
REMARK    4  A    between atoms: _9  and  _11
REMARK    5  A    between atoms: _11  and  _12
REMARK    6  A    between atoms: _11  and  _14
REMARK    7  A    between atoms: _14  and  _15
REMARK    8  A    between atoms: _18  and  _20
REMARK    9  A    between atoms: _20  and  _21
REMARK   10  A    between atoms: _20  and  _23
REMARK   11  A    between atoms: _23  and  _24
REMARK   12  A    between atoms: _30  and  _32
REMARK   13  A    between atoms: _32  and  _33
REMARK   14  A    between atoms: _32  and  _35
REMARK   15  A    between atoms: _35  and  _36
REMARK   16  A    between atoms: _42  and  _44
REMARK   17  A    between atoms: _44  and  _45
REMARK   18  A    between atoms: _44  and  _47
REMARK   19  A    between atoms: _47  and  _48
REMARK   20  A    between atoms: _51  and  _53
REMARK   21  A    between atoms: _53  and  _54
REMARK   22  A    between atoms: _53  and  _56
REMARK   23  A    between atoms: _56  and  _57
REMARK   24  A    between atoms: _62  and  _64
REMARK   25  A    between atoms: _64  and  _65
REMARK   26  A    between atoms: _64  and  _67
REMARK   27  A    between atoms: _67  and  _68
REMARK   28  A    between atoms: _68  and  _69
REMARK   29  A    between atoms: _74  and  _76
REMARK   30  A    between atoms: _76  and  _77
REMARK   31  A    between atoms: _76  and  _79
REMARK   32  A    between atoms: _79  and  _80
REMARK   33  A    between atoms: _83  and  _85
REMARK   34  A    between atoms: _85  and  _86
REMARK   35  A    between atoms: _85  and  _88
REMARK   36  A    between atoms: _88  and  _89
REMARK   37  A    between atoms: _89  and  _90
REMARK   38  A    between atoms: _90  and  _91
REMARK   39  A    between atoms: _91  and  _92
REMARK   40  A    between atoms: _96  and  _98
REMARK   41  A    between atoms: _98  and  _99
REMARK   42  A    between atoms: _98  and  _101
REMARK   43  A    between atoms: _104  and  _106
REMARK   44  A    between atoms: _106  and  _107
REMARK   45  A    between atoms: _106  and  _109
REMARK   46  A    between atoms: _109  and  _110
REMARK   47  A    between atoms: _110  and  _111
REMARK   48  A    between atoms: _111  and  _112
REMARK   49  A    between atoms: _121  and  _123
REMARK   50  A    between atoms: _123  and  _124
REMARK   51  A    between atoms: _123  and  _126
REMARK   52  A    between atoms: _128  and  _130
REMARK   53  A    between atoms: _130  and  _131
REMARK   54  A    between atoms: _130  and  _133
REMARK   55  A    between atoms: _133  and  _134
REMARK   56  A    between atoms: _139  and  _140
REMARK   57  A    between atoms: _142  and  _144
REMARK   58  A    between atoms: _144  and  _145
REMARK   59  A    between atoms: _147  and  _149
REMARK   60  A    between atoms: _149  and  _150
REMARK   61  A    between atoms: _152  and  _154
REMARK   62  A    between atoms: _154  and  _155
REMARK   63  A    between atoms: _154  and  _157
REMARK   64  A    between atoms: _157  and  _158
REMARK   65  A    between atoms: _161  and  _163
REMARK   66  A    between atoms: _163  and  _164
REMARK   67  A    between atoms: _163  and  _166
REMARK   68  A    between atoms: _166  and  _167
REMARK   69  A    between atoms: _167  and  _168
REMARK   70  A    between atoms: _173  and  _175
REMARK   71  A    between atoms: _175  and  _176
REMARK   72  A    between atoms: _175  and  _178
REMARK   73  A    between atoms: _178  and  _179
REMARK   74  A    between atoms: _181  and  _183
REMARK   75  A    between atoms: _183  and  _184
REMARK   76  A    between atoms: _183  and  _186
REMARK   77  A    between atoms: _186  and  _187
REMARK   78  A    between atoms: _197  and  _199
REMARK   79  A    between atoms: _199  and  _200
REMARK   80  A    between atoms: _199  and  _202
REMARK   81  A    between atoms: _202  and  _203
REMARK   82  A    between atoms: _203  and  _204
REMARK   83  A    between atoms: _204  and  _205
REMARK   84  A    between atoms: _205  and  _206
REMARK   85  A    between atoms: _210  and  _212
REMARK   86  A    between atoms: _212  and  _213
REMARK   87  A    between atoms: _212  and  _215
REMARK   88  A    between atoms: _215  and  _216
REMARK   89  A    between atoms: _216  and  _217
REMARK   90  A    between atoms: _217  and  _218
REMARK   91  A    between atoms: _227  and  _229
REMARK   92  A    between atoms: _229  and  _230
REMARK   93  A    between atoms: _229  and  _232
REMARK   94  A    between atoms: _232  and  _233
REMARK   95  A    between atoms: _236  and  _238
REMARK   96  A    between atoms: _238  and  _239
REMARK   97  A    between atoms: _238  and  _241
REMARK   98  A    between atoms: _241  and  _242
REMARK   99  A    between atoms: _246  and  _247
REMARK  100  A    between atoms: _252  and  _254
REMARK  101  A    between atoms: _254  and  _255
REMARK  102  A    between atoms: _254  and  _257
REMARK  103  A    between atoms: _257  and  _258
REMARK  104  A    between atoms: _258  and  _259
REMARK  105  A    between atoms: _262  and  _264
REMARK  106  A    between atoms: _264  and  _265
REMARK  107  A    between atoms: _264  and  _267
REMARK  108  A    between atoms: _267  and  _268
REMARK  109  A    between atoms: _273  and  _275
REMARK  110  A    between atoms: _275  and  _276
REMARK  111  A    between atoms: _275  and  _278
REMARK  112  A    between atoms: _278  and  _279
REMARK  113  A    between atoms: _279  and  _280
REMARK  114  A    between atoms: _280  and  _281
REMARK  115  A    between atoms: _281  and  _282
REMARK  116  A    between atoms: _286  and  _288
REMARK  117  A    between atoms: _288  and  _289
REMARK  118  A    between atoms: _288  and  _291
REMARK  119  A    between atoms: _291  and  _292
REMARK  120  A    between atoms: _302  and  _304
REMARK  121  A    between atoms: _304  and  _305
REMARK  122  A    between atoms: _304  and  _307
REMARK  123  A    between atoms: _307  and  _308
REMARK                            x       y       z     vdW  Elec       q    Type
REMARK                         _______ _______ _______ _____ _____    ______ ____
ROOT
ATOM      1  O   HOH     1      75.409  67.857  16.293  0.00  0.00    +0.000 OA
ENDROOT
TORSDOF 0
REMARK  Name = ../refined-set-2016/3f7i/3f7i_pocket.pdb
REMARK  123 active torsions:
REMARK  status: ('A' for Active; 'I' for Inactive)
REMARK    1  A    between atoms: _1  and  _3
REMARK    2  A    between atoms: _3  and  _4
REMARK    3  A    between atoms: _3  and  _6
REMARK    4  A    between atoms: _9  and  _11
REMARK    5  A    between atoms: _11  and  _12
REMARK    6  A    between atoms: _11  and  _14
REMARK    7  A    between atoms: _14  and  _15
REMARK    8  A    between atoms: _18  and  _20
REMARK    9  A    between atoms: _20  and  _21
REMARK   10  A    between atoms: _20  and  _23
REMARK   11  A    between atoms: _23  and  _24
REMARK   12  A    between atoms: _30  and  _32
REMARK   13  A    between atoms: _32  and  _33
REMARK   14  A    between atoms: _32  and  _35
REMARK   15  A    between atoms: _35  and  _36
REMARK   16  A    between atoms: _42  and  _44
REMARK   17  A    between atoms: _44  and  _45
REMARK   18  A    between atoms: _44  and  _47
REMARK   19  A    between atoms: _47  and  _48
REMARK   20  A    between atoms: _51  and  _53
REMARK   21  A    between atoms: _53  and  _54
REMARK   22  A    between atoms: _53  and  _56
REMARK   23  A    between atoms: _56  and  _57
REMARK   24  A    between atoms: _62  and  _64
REMARK   25  A    between atoms: _64  and  _65
REMARK   26  A    between atoms: _64  and  _67
REMARK   27  A    between atoms: _67  and  _68
REMARK   28  A    between atoms: _68  and  _69
REMARK   29  A    between atoms: _74  and  _76
REMARK   30  A    between atoms: _76  and  _77
REMARK   31  A    between atoms: _76  and  _79
REMARK   32  A    between atoms: _79  and  _80
REMARK   33  A    between atoms: _83  and  _85
REMARK   34  A    between atoms: _85  and  _86
REMARK   35  A    between atoms: _85  and  _88
REMARK   36  A    between atoms: _88  and  _89
REMARK   37  A    between atoms: _89  and  _90
REMARK   38  A    between atoms: _90  and  _91
REMARK   39  A    between atoms: _91  and  _92
REMARK   40  A    between atoms: _96  and  _98
REMARK   41  A    between atoms: _98  and  _99
REMARK   42  A    between atoms: _98  and  _101
REMARK   43  A    between atoms: _104  and  _106
REMARK   44  A    between atoms: _106  and  _107
REMARK   45  A    between atoms: _106  and  _109
REMARK   46  A    between atoms: _109  and  _110
REMARK   47  A    between atoms: _110  and  _111
REMARK   48  A    between atoms: _111  and  _112
REMARK   49  A    between atoms: _121  and  _123
REMARK   50  A    between atoms: _123  and  _124
REMARK   51  A    between atoms: _123  and  _126
REMARK   52  A    between atoms: _128  and  _130
REMARK   53  A    between atoms: _130  and  _131
REMARK   54  A    between atoms: _130  and  _133
REMARK   55  A    between atoms: _133  and  _134
REMARK   56  A    between atoms: _139  and  _140
REMARK   57  A    between atoms: _142  and  _144
REMARK   58  A    between atoms: _144  and  _145
REMARK   59  A    between atoms: _147  and  _149
REMARK   60  A    between atoms: _149  and  _150
REMARK   61  A    between atoms: _152  and  _154
REMARK   62  A    between atoms: _154  and  _155
REMARK   63  A    between atoms: _154  and  _157
REMARK   64  A    between atoms: _157  and  _158
REMARK   65  A    between atoms: _161  and  _163
REMARK   66  A    between atoms: _163  and  _164
REMARK   67  A    between atoms: _163  and  _166
REMARK   68  A    between atoms: _166  and  _167
REMARK   69  A    between atoms: _167  and  _168
REMARK   70  A    between atoms: _173  and  _175
REMARK   71  A    between atoms: _175  and  _176
REMARK   72  A    between atoms: _175  and  _178
REMARK   73  A    between atoms: _178  and  _179
REMARK   74  A    between atoms: _181  and  _183
REMARK   75  A    between atoms: _183  and  _184
REMARK   76  A    between atoms: _183  and  _186
REMARK   77  A    between atoms: _186  and  _187
REMARK   78  A    between atoms: _197  and  _199
REMARK   79  A    between atoms: _199  and  _200
REMARK   80  A    between atoms: _199  and  _202
REMARK   81  A    between atoms: _202  and  _203
REMARK   82  A    between atoms: _203  and  _204
REMARK   83  A    between atoms: _204  and  _205
REMARK   84  A    between atoms: _205  and  _206
REMARK   85  A    between atoms: _210  and  _212
REMARK   86  A    between atoms: _212  and  _213
REMARK   87  A    between atoms: _212  and  _215
REMARK   88  A    between atoms: _215  and  _216
REMARK   89  A    between atoms: _216  and  _217
REMARK   90  A    between atoms: _217  and  _218
REMARK   91  A    between atoms: _227  and  _229
REMARK   92  A    between atoms: _229  and  _230
REMARK   93  A    between atoms: _229  and  _232
REMARK   94  A    between atoms: _232  and  _233
REMARK   95  A    between atoms: _236  and  _238
REMARK   96  A    between atoms: _238  and  _239
REMARK   97  A    between atoms: _238  and  _241
REMARK   98  A    between atoms: _241  and  _242
REMARK   99  A    between atoms: _246  and  _247
REMARK  100  A    between atoms: _252  and  _254
REMARK  101  A    between atoms: _254  and  _255
REMARK  102  A    between atoms: _254  and  _257
REMARK  103  A    between atoms: _257  and  _258
REMARK  104  A    between atoms: _258  and  _259
REMARK  105  A    between atoms: _262  and  _264
REMARK  106  A    between atoms: _264  and  _265
REMARK  107  A    between atoms: _264  and  _267
REMARK  108  A    between atoms: _267  and  _268
REMARK  109  A    between atoms: _273  and  _275
REMARK  110  A    between atoms: _275  and  _276
REMARK  111  A    between atoms: _275  and  _278
REMARK  112  A    between atoms: _278  and  _279
REMARK  113  A    between atoms: _279  and  _280
REMARK  114  A    between atoms: _280  and  _281
REMARK  115  A    between atoms: _281  and  _282
REMARK  116  A    between atoms: _286  and  _288
REMARK  117  A    between atoms: _288  and  _289
REMARK  118  A    between atoms: _288  and  _291
REMARK  119  A    between atoms: _291  and  _292
REMARK  120  A    between atoms: _302  and  _304
REMARK  121  A    between atoms: _304  and  _305
REMARK  122  A    between atoms: _304  and  _307
REMARK  123  A    between atoms: _307  and  _308
REMARK                            x       y       z     vdW  Elec       q    Type
REMARK                         _______ _______ _______ _____ _____    ______ ____
ROOT
ATOM      1  O   HOH     1      86.942  61.556  12.132  0.00  0.00    +0.000 OA
ENDROOT
TORSDOF 0
REMARK  Name = ../refined-set-2016/3f7i/3f7i_pocket.pdb
REMARK  123 active torsions:
REMARK  status: ('A' for Active; 'I' for Inactive)
REMARK    1  A    between atoms: _1  and  _3
REMARK    2  A    between atoms: _3  and  _4
REMARK    3  A    between atoms: _3  and  _6
REMARK    4  A    between atoms: _9  and  _11
REMARK    5  A    between atoms: _11  and  _12
REMARK    6  A    between atoms: _11  and  _14
REMARK    7  A    between atoms: _14  and  _15
REMARK    8  A    between atoms: _18  and  _20
REMARK    9  A    between atoms: _20  and  _21
REMARK   10  A    between atoms: _20  and  _23
REMARK   11  A    between atoms: _23  and  _24
REMARK   12  A    between atoms: _30  and  _32
REMARK   13  A    between atoms: _32  and  _33
REMARK   14  A    between atoms: _32  and  _35
REMARK   15  A    between atoms: _35  and  _36
REMARK   16  A    between atoms: _42  and  _44
REMARK   17  A    between atoms: _44  and  _45
REMARK   18  A    between atoms: _44  and  _47
REMARK   19  A    between atoms: _47  and  _48
REMARK   20  A    between atoms: _51  and  _53
REMARK   21  A    between atoms: _53  and  _54
REMARK   22  A    between atoms: _53  and  _56
REMARK   23  A    between atoms: _56  and  _57
REMARK   24  A    between atoms: _62  and  _64
REMARK   25  A    between atoms: _64  and  _65
REMARK   26  A    between atoms: _64  and  _67
REMARK   27  A    between atoms: _67  and  _68
REMARK   28  A    between atoms: _68  and  _69
REMARK   29  A    between atoms: _74  and  _76
REMARK   30  A    between atoms: _76  and  _77
REMARK   31  A    between atoms: _76  and  _79
REMARK   32  A    between atoms: _79  and  _80
REMARK   33  A    between atoms: _83  and  _85
REMARK   34  A    between atoms: _85  and  _86
REMARK   35  A    between atoms: _85  and  _88
REMARK   36  A    between atoms: _88  and  _89
REMARK   37  A    between atoms: _89  and  _90
REMARK   38  A    between atoms: _90  and  _91
REMARK   39  A    between atoms: _91  and  _92
REMARK   40  A    between atoms: _96  and  _98
REMARK   41  A    between atoms: _98  and  _99
REMARK   42  A    between atoms: _98  and  _101
REMARK   43  A    between atoms: _104  and  _106
REMARK   44  A    between atoms: _106  and  _107
REMARK   45  A    between atoms: _106  and  _109
REMARK   46  A    between atoms: _109  and  _110
REMARK   47  A    between atoms: _110  and  _111
REMARK   48  A    between atoms: _111  and  _112
REMARK   49  A    between atoms: _121  and  _123
REMARK   50  A    between atoms: _123  and  _124
REMARK   51  A    between atoms: _123  and  _126
REMARK   52  A    between atoms: _128  and  _130
REMARK   53  A    between atoms: _130  and  _131
REMARK   54  A    between atoms: _130  and  _133
REMARK   55  A    between atoms: _133  and  _134
REMARK   56  A    between atoms: _139  and  _140
REMARK   57  A    between atoms: _142  and  _144
REMARK   58  A    between atoms: _144  and  _145
REMARK   59  A    between atoms: _147  and  _149
REMARK   60  A    between atoms: _149  and  _150
REMARK   61  A    between atoms: _152  and  _154
REMARK   62  A    between atoms: _154  and  _155
REMARK   63  A    between atoms: _154  and  _157
REMARK   64  A    between atoms: _157  and  _158
REMARK   65  A    between atoms: _161  and  _163
REMARK   66  A    between atoms: _163  and  _164
REMARK   67  A    between atoms: _163  and  _166
REMARK   68  A    between atoms: _166  and  _167
REMARK   69  A    between atoms: _167  and  _168
REMARK   70  A    between atoms: _173  and  _175
REMARK   71  A    between atoms: _175  and  _176
REMARK   72  A    between atoms: _175  and  _178
REMARK   73  A    between atoms: _178  and  _179
REMARK   74  A    between atoms: _181  and  _183
REMARK   75  A    between atoms: _183  and  _184
REMARK   76  A    between atoms: _183  and  _186
REMARK   77  A    between atoms: _186  and  _187
REMARK   78  A    between atoms: _197  and  _199
REMARK   79  A    between atoms: _199  and  _200
REMARK   80  A    between atoms: _199  and  _202
REMARK   81  A    between atoms: _202  and  _203
REMARK   82  A    between atoms: _203  and  _204
REMARK   83  A    between atoms: _204  and  _205
REMARK   84  A    between atoms: _205  and  _206
REMARK   85  A    between atoms: _210  and  _212
REMARK   86  A    between atoms: _212  and  _213
REMARK   87  A    between atoms: _212  and  _215
REMARK   88  A    between atoms: _215  and  _216
REMARK   89  A    between atoms: _216  and  _217
REMARK   90  A    between atoms: _217  and  _218
REMARK   91  A    between atoms: _227  and  _229
REMARK   92  A    between atoms: _229  and  _230
REMARK   93  A    between atoms: _229  and  _232
REMARK   94  A    between atoms: _232  and  _233
REMARK   95  A    between atoms: _236  and  _238
REMARK   96  A    between atoms: _238  and  _239
REMARK   97  A    between atoms: _238  and  _241
REMARK   98  A    between atoms: _241  and  _242
REMARK   99  A    between atoms: _246  and  _247
REMARK  100  A    between atoms: _252  and  _254
REMARK  101  A    between atoms: _254  and  _255
REMARK  102  A    between atoms: _254  and  _257
REMARK  103  A    between atoms: _257  and  _258
REMARK  104  A    between atoms: _258  and  _259
REMARK  105  A    between atoms: _262  and  _264
REMARK  106  A    between atoms: _264  and  _265
REMARK  107  A    between atoms: _264  and  _267
REMARK  108  A    between atoms: _267  and  _268
REMARK  109  A    between atoms: _273  and  _275
REMARK  110  A    between atoms: _275  and  _276
REMARK  111  A    between atoms: _275  and  _278
REMARK  112  A    between atoms: _278  and  _279
REMARK  113  A    between atoms: _279  and  _280
REMARK  114  A    between atoms: _280  and  _281
REMARK  115  A    between atoms: _281  and  _282
REMARK  116  A    between atoms: _286  and  _288
REMARK  117  A    between atoms: _288  and  _289
REMARK  118  A    between atoms: _288  and  _291
REMARK  119  A    between atoms: _291  and  _292
REMARK  120  A    between atoms: _302  and  _304
REMARK  121  A    between atoms: _304  and  _305
REMARK  122  A    between atoms: _304  and  _307
REMARK  123  A    between atoms: _307  and  _308
REMARK                            x       y       z     vdW  Elec       q    Type
REMARK                         _______ _______ _______ _____ _____    ______ ____
ROOT
ATOM      1  O   HOH     1      83.288  54.123  20.218  0.00  0.00    +0.000 OA
ENDROOT
TORSDOF 0
REMARK  Name = ../refined-set-2016/3f7i/3f7i_pocket.pdb
REMARK  123 active torsions:
REMARK  status: ('A' for Active; 'I' for Inactive)
REMARK    1  A    between atoms: _1  and  _3
REMARK    2  A    between atoms: _3  and  _4
REMARK    3  A    between atoms: _3  and  _6
REMARK    4  A    between atoms: _9  and  _11
REMARK    5  A    between atoms: _11  and  _12
REMARK    6  A    between atoms: _11  and  _14
REMARK    7  A    between atoms: _14  and  _15
REMARK    8  A    between atoms: _18  and  _20
REMARK    9  A    between atoms: _20  and  _21
REMARK   10  A    between atoms: _20  and  _23
REMARK   11  A    between atoms: _23  and  _24
REMARK   12  A    between atoms: _30  and  _32
REMARK   13  A    between atoms: _32  and  _33
REMARK   14  A    between atoms: _32  and  _35
REMARK   15  A    between atoms: _35  and  _36
REMARK   16  A    between atoms: _42  and  _44
REMARK   17  A    between atoms: _44  and  _45
REMARK   18  A    between atoms: _44  and  _47
REMARK   19  A    between atoms: _47  and  _48
REMARK   20  A    between atoms: _51  and  _53
REMARK   21  A    between atoms: _53  and  _54
REMARK   22  A    between atoms: _53  and  _56
REMARK   23  A    between atoms: _56  and  _57
REMARK   24  A    between atoms: _62  and  _64
REMARK   25  A    between atoms: _64  and  _65
REMARK   26  A    between atoms: _64  and  _67
REMARK   27  A    between atoms: _67  and  _68
REMARK   28  A    between atoms: _68  and  _69
REMARK   29  A    between atoms: _74  and  _76
REMARK   30  A    between atoms: _76  and  _77
REMARK   31  A    between atoms: _76  and  _79
REMARK   32  A    between atoms: _79  and  _80
REMARK   33  A    between atoms: _83  and  _85
REMARK   34  A    between atoms: _85  and  _86
REMARK   35  A    between atoms: _85  and  _88
REMARK   36  A    between atoms: _88  and  _89
REMARK   37  A    between atoms: _89  and  _90
REMARK   38  A    between atoms: _90  and  _91
REMARK   39  A    between atoms: _91  and  _92
REMARK   40  A    between atoms: _96  and  _98
REMARK   41  A    between atoms: _98  and  _99
REMARK   42  A    between atoms: _98  and  _101
REMARK   43  A    between atoms: _104  and  _106
REMARK   44  A    between atoms: _106  and  _107
REMARK   45  A    between atoms: _106  and  _109
REMARK   46  A    between atoms: _109  and  _110
REMARK   47  A    between atoms: _110  and  _111
REMARK   48  A    between atoms: _111  and  _112
REMARK   49  A    between atoms: _121  and  _123
REMARK   50  A    between atoms: _123  and  _124
REMARK   51  A    between atoms: _123  and  _126
REMARK   52  A    between atoms: _128  and  _130
REMARK   53  A    between atoms: _130  and  _131
REMARK   54  A    between atoms: _130  and  _133
REMARK   55  A    between atoms: _133  and  _134
REMARK   56  A    between atoms: _139  and  _140
REMARK   57  A    between atoms: _142  and  _144
REMARK   58  A    between atoms: _144  and  _145
REMARK   59  A    between atoms: _147  and  _149
REMARK   60  A    between atoms: _149  and  _150
REMARK   61  A    between atoms: _152  and  _154
REMARK   62  A    between atoms: _154  and  _155
REMARK   63  A    between atoms: _154  and  _157
REMARK   64  A    between atoms: _157  and  _158
REMARK   65  A    between atoms: _161  and  _163
REMARK   66  A    between atoms: _163  and  _164
REMARK   67  A    between atoms: _163  and  _166
REMARK   68  A    between atoms: _166  and  _167
REMARK   69  A    between atoms: _167  and  _168
REMARK   70  A    between atoms: _173  and  _175
REMARK   71  A    between atoms: _175  and  _176
REMARK   72  A    between atoms: _175  and  _178
REMARK   73  A    between atoms: _178  and  _179
REMARK   74  A    between atoms: _181  and  _183
REMARK   75  A    between atoms: _183  and  _184
REMARK   76  A    between atoms: _183  and  _186
REMARK   77  A    between atoms: _186  and  _187
REMARK   78  A    between atoms: _197  and  _199
REMARK   79  A    between atoms: _199  and  _200
REMARK   80  A    between atoms: _199  and  _202
REMARK   81  A    between atoms: _202  and  _203
REMARK   82  A    between atoms: _203  and  _204
REMARK   83  A    between atoms: _204  and  _205
REMARK   84  A    between atoms: _205  and  _206
REMARK   85  A    between atoms: _210  and  _212
REMARK   86  A    between atoms: _212  and  _213
REMARK   87  A    between atoms: _212  and  _215
REMARK   88  A    between atoms: _215  and  _216
REMARK   89  A    between atoms: _216  and  _217
REMARK   90  A    between atoms: _217  and  _218
REMARK   91  A    between atoms: _227  and  _229
REMARK   92  A    between atoms: _229  and  _230
REMARK   93  A    between atoms: _229  and  _232
REMARK   94  A    between atoms: _232  and  _233
REMARK   95  A    between atoms: _236  and  _238
REMARK   96  A    between atoms: _238  and  _239
REMARK   97  A    between atoms: _238  and  _241
REMARK   98  A    between atoms: _241  and  _242
REMARK   99  A    between atoms: _246  and  _247
REMARK  100  A    between atoms: _252  and  _254
REMARK  101  A    between atoms: _254  and  _255
REMARK  102  A    between atoms: _254  and  _257
REMARK  103  A    between atoms: _257  and  _258
REMARK  104  A    between atoms: _258  and  _259
REMARK  105  A    between atoms: _262  and  _264
REMARK  106  A    between atoms: _264  and  _265
REMARK  107  A    between atoms: _264  and  _267
REMARK  108  A    between atoms: _267  and  _268
REMARK  109  A    between atoms: _273  and  _275
REMARK  110  A    between atoms: _275  and  _276
REMARK  111  A    between atoms: _275  and  _278
REMARK  112  A    between atoms: _278  and  _279
REMARK  113  A    between atoms: _279  and  _280
REMARK  114  A    between atoms: _280  and  _281
REMARK  115  A    between atoms: _281  and  _282
REMARK  116  A    between atoms: _286  and  _288
REMARK  117  A    between atoms: _288  and  _289
REMARK  118  A    between atoms: _288  and  _291
REMARK  119  A    between atoms: _291  and  _292
REMARK  120  A    between atoms: _302  and  _304
REMARK  121  A    between atoms: _304  and  _305
REMARK  122  A    between atoms: _304  and  _307
REMARK  123  A    between atoms: _307  and  _308
REMARK                            x       y       z     vdW  Elec       q    Type
REMARK                         _______ _______ _______ _____ _____    ______ ____
ROOT
ATOM      1  O   HOH     1      70.938  60.211  23.217  0.00  0.00    +0.000 OA
ENDROOT
TORSDOF 0
REMARK  Name = ../refined-set-2016/3f7i/3f7i_pocket.pdb
REMARK  123 active torsions:
REMARK  status: ('A' for Active; 'I' for Inactive)
REMARK    1  A    between atoms: _1  and  _3
REMARK    2  A    between atoms: _3  and  _4
REMARK    3  A    between atoms: _3  and  _6
REMARK    4  A    between atoms: _9  and  _11
REMARK    5  A    between atoms: _11  and  _12
REMARK    6  A    between atoms: _11  and  _14
REMARK    7  A    between atoms: _14  and  _15
REMARK    8  A    between atoms: _18  and  _20
REMARK    9  A    between atoms: _20  and  _21
REMARK   10  A    between atoms: _20  and  _23
REMARK   11  A    between atoms: _23  and  _24
REMARK   12  A    between atoms: _30  and  _32
REMARK   13  A    between atoms: _32  and  _33
REMARK   14  A    between atoms: _32  and  _35
REMARK   15  A    between atoms: _35  and  _36
REMARK   16  A    between atoms: _42  and  _44
REMARK   17  A    between atoms: _44  and  _45
REMARK   18  A    between atoms: _44  and  _47
REMARK   19  A    between atoms: _47  and  _48
REMARK   20  A    between atoms: _51  and  _53
REMARK   21  A    between atoms: _53  and  _54
REMARK   22  A    between atoms: _53  and  _56
REMARK   23  A    between atoms: _56  and  _57
REMARK   24  A    between atoms: _62  and  _64
REMARK   25  A    between atoms: _64  and  _65
REMARK   26  A    between atoms: _64  and  _67
REMARK   27  A    between atoms: _67  and  _68
REMARK   28  A    between atoms: _68  and  _69
REMARK   29  A    between atoms: _74  and  _76
REMARK   30  A    between atoms: _76  and  _77
REMARK   31  A    between atoms: _76  and  _79
REMARK   32  A    between atoms: _79  and  _80
REMARK   33  A    between atoms: _83  and  _85
REMARK   34  A    between atoms: _85  and  _86
REMARK   35  A    between atoms: _85  and  _88
REMARK   36  A    between atoms: _88  and  _89
REMARK   37  A    between atoms: _89  and  _90
REMARK   38  A    between atoms: _90  and  _91
REMARK   39  A    between atoms: _91  and  _92
REMARK   40  A    between atoms: _96  and  _98
REMARK   41  A    between atoms: _98  and  _99
REMARK   42  A    between atoms: _98  and  _101
REMARK   43  A    between atoms: _104  and  _106
REMARK   44  A    between atoms: _106  and  _107
REMARK   45  A    between atoms: _106  and  _109
REMARK   46  A    between atoms: _109  and  _110
REMARK   47  A    between atoms: _110  and  _111
REMARK   48  A    between atoms: _111  and  _112
REMARK   49  A    between atoms: _121  and  _123
REMARK   50  A    between atoms: _123  and  _124
REMARK   51  A    between atoms: _123  and  _126
REMARK   52  A    between atoms: _128  and  _130
REMARK   53  A    between atoms: _130  and  _131
REMARK   54  A    between atoms: _130  and  _133
REMARK   55  A    between atoms: _133  and  _134
REMARK   56  A    between atoms: _139  and  _140
REMARK   57  A    between atoms: _142  and  _144
REMARK   58  A    between atoms: _144  and  _145
REMARK   59  A    between atoms: _147  and  _149
REMARK   60  A    between atoms: _149  and  _150
REMARK   61  A    between atoms: _152  and  _154
REMARK   62  A    between atoms: _154  and  _155
REMARK   63  A    between atoms: _154  and  _157
REMARK   64  A    between atoms: _157  and  _158
REMARK   65  A    between atoms: _161  and  _163
REMARK   66  A    between atoms: _163  and  _164
REMARK   67  A    between atoms: _163  and  _166
REMARK   68  A    between atoms: _166  and  _167
REMARK   69  A    between atoms: _167  and  _168
REMARK   70  A    between atoms: _173  and  _175
REMARK   71  A    between atoms: _175  and  _176
REMARK   72  A    between atoms: _175  and  _178
REMARK   73  A    between atoms: _178  and  _179
REMARK   74  A    between atoms: _181  and  _183
REMARK   75  A    between atoms: _183  and  _184
REMARK   76  A    between atoms: _183  and  _186
REMARK   77  A    between atoms: _186  and  _187
REMARK   78  A    between atoms: _197  and  _199
REMARK   79  A    between atoms: _199  and  _200
REMARK   80  A    between atoms: _199  and  _202
REMARK   81  A    between atoms: _202  and  _203
REMARK   82  A    between atoms: _203  and  _204
REMARK   83  A    between atoms: _204  and  _205
REMARK   84  A    between atoms: _205  and  _206
REMARK   85  A    between atoms: _210  and  _212
REMARK   86  A    between atoms: _212  and  _213
REMARK   87  A    between atoms: _212  and  _215
REMARK   88  A    between atoms: _215  and  _216
REMARK   89  A    between atoms: _216  and  _217
REMARK   90  A    between atoms: _217  and  _218
REMARK   91  A    between atoms: _227  and  _229
REMARK   92  A    between atoms: _229  and  _230
REMARK   93  A    between atoms: _229  and  _232
REMARK   94  A    between atoms: _232  and  _233
REMARK   95  A    between atoms: _236  and  _238
REMARK   96  A    between atoms: _238  and  _239
REMARK   97  A    between atoms: _238  and  _241
REMARK   98  A    between atoms: _241  and  _242
REMARK   99  A    between atoms: _246  and  _247
REMARK  100  A    between atoms: _252  and  _254
REMARK  101  A    between atoms: _254  and  _255
REMARK  102  A    between atoms: _254  and  _257
REMARK  103  A    between atoms: _257  and  _258
REMARK  104  A    between atoms: _258  and  _259
REMARK  105  A    between atoms: _262  and  _264
REMARK  106  A    between atoms: _264  and  _265
REMARK  107  A    between atoms: _264  and  _267
REMARK  108  A    between atoms: _267  and  _268
REMARK  109  A    between atoms: _273  and  _275
REMARK  110  A    between atoms: _275  and  _276
REMARK  111  A    between atoms: _275  and  _278
REMARK  112  A    between atoms: _278  and  _279
REMARK  113  A    between atoms: _279  and  _280
REMARK  114  A    between atoms: _280  and  _281
REMARK  115  A    between atoms: _281  and  _282
REMARK  116  A    between atoms: _286  and  _288
REMARK  117  A    between atoms: _288  and  _289
REMARK  118  A    between atoms: _288  and  _291
REMARK  119  A    between atoms: _291  and  _292
REMARK  120  A    between atoms: _302  and  _304
REMARK  121  A    between atoms: _304  and  _305
REMARK  122  A    between atoms: _304  and  _307
REMARK  123  A    between atoms: _307  and  _308
REMARK                            x       y       z     vdW  Elec       q    Type
REMARK                         _______ _______ _______ _____ _____    ______ ____
ROOT
ATOM      1  O   HOH     1      77.939  55.480  19.911  0.00  0.00    +0.000 OA
ENDROOT
TORSDOF 0
