REMARK  Name = ../refined-set-2016/4pf5/4pf5_pocket.pdb
REMARK  106 active torsions:
REMARK  status: ('A' for Active; 'I' for Inactive)
REMARK    1  A    between atoms: _1  and  _3
REMARK    2  A    between atoms: _12  and  _15
REMARK    3  A    between atoms: _15  and  _16
REMARK    4  A    between atoms: _21  and  _24
REMARK    5  A    between atoms: _22  and  _33
REMARK    6  A    between atoms: _24  and  _25
REMARK    7  A    between atoms: _30  and  _31
REMARK    8  A    between atoms: _34  and  _35
REMARK    9  A    between atoms: _40  and  _42
REMARK   10  A    between atoms: _42  and  _43
REMARK   11  A    between atoms: _42  and  _45
REMARK   12  A    between atoms: _45  and  _46
REMARK   13  A    between atoms: _51  and  _53
REMARK   14  A    between atoms: _53  and  _54
REMARK   15  A    between atoms: _53  and  _56
REMARK   16  A    between atoms: _56  and  _57
REMARK   17  A    between atoms: _60  and  _62
REMARK   18  A    between atoms: _62  and  _63
REMARK   19  A    between atoms: _62  and  _65
REMARK   20  A    between atoms: _65  and  _66
REMARK   21  A    between atoms: _69  and  _71
REMARK   22  A    between atoms: _71  and  _72
REMARK   23  A    between atoms: _71  and  _74
REMARK   24  A    between atoms: _74  and  _75
REMARK   25  A    between atoms: _75  and  _77
REMARK   26  A    between atoms: _77  and  MN_267
REMARK   27  A    between atoms: _78  and  _80
REMARK   28  A    between atoms: _80  and  _81
REMARK   29  A    between atoms: _80  and  _83
REMARK   30  A    between atoms: _83  and  _84
REMARK   31  A    between atoms: _86  and  _88
REMARK   32  A    between atoms: _88  and  _89
REMARK   33  A    between atoms: _88  and  _91
REMARK   34  A    between atoms: _91  and  _92
REMARK   35  A    between atoms: _95  and  _97
REMARK   36  A    between atoms: _97  and  _98
REMARK   37  A    between atoms: _100  and  _102
REMARK   38  A    between atoms: _102  and  _103
REMARK   39  A    between atoms: _102  and  _105
REMARK   40  A    between atoms: _105  and  _106
REMARK   41  A    between atoms: _109  and  _111
REMARK   42  A    between atoms: _111  and  _112
REMARK   43  A    between atoms: _111  and  _114
REMARK   44  A    between atoms: _114  and  _115
REMARK   45  A    between atoms: _120  and  _121
REMARK   46  A    between atoms: _123  and  _125
REMARK   47  A    between atoms: _125  and  _126
REMARK   48  A    between atoms: _125  and  _128
REMARK   49  A    between atoms: _128  and  _129
REMARK   50  A    between atoms: _129  and  _130
REMARK   51  A    between atoms: _130  and  _131
REMARK   52  A    between atoms: _131  and  _132
REMARK   53  A    between atoms: _136  and  _138
REMARK   54  A    between atoms: _138  and  _139
REMARK   55  A    between atoms: _138  and  _141
REMARK   56  A    between atoms: _141  and  _142
REMARK   57  A    between atoms: _142  and  _143
REMARK   58  A    between atoms: _146  and  _148
REMARK   59  A    between atoms: _148  and  _149
REMARK   60  A    between atoms: _151  and  _153
REMARK   61  A    between atoms: _153  and  _154
REMARK   62  A    between atoms: _153  and  _156
REMARK   63  A    between atoms: _156  and  _157
REMARK   64  A    between atoms: _159  and  _161
REMARK   65  A    between atoms: _161  and  _162
REMARK   66  A    between atoms: _161  and  _164
REMARK   67  A    between atoms: _164  and  _165
REMARK   68  A    between atoms: _167  and  _169
REMARK   69  A    between atoms: _169  and  _170
REMARK   70  A    between atoms: _169  and  _172
REMARK   71  A    between atoms: _172  and  _173
REMARK   72  A    between atoms: _179  and  _180
REMARK   73  A    between atoms: _185  and  _187
REMARK   74  A    between atoms: _187  and  _188
REMARK   75  A    between atoms: _191  and  _193
REMARK   76  A    between atoms: _193  and  _194
REMARK   77  A    between atoms: _193  and  _196
REMARK   78  A    between atoms: _196  and  _197
REMARK   79  A    between atoms: _200  and  _202
REMARK   80  A    between atoms: _202  and  _203
REMARK   81  A    between atoms: _205  and  _207
REMARK   82  A    between atoms: _207  and  _208
REMARK   83  A    between atoms: _210  and  _212
REMARK   84  A    between atoms: _212  and  _213
REMARK   85  A    between atoms: _212  and  _215
REMARK   86  A    between atoms: _215  and  _216
REMARK   87  A    between atoms: _218  and  _220
REMARK   88  A    between atoms: _220  and  _221
REMARK   89  A    between atoms: _220  and  _223
REMARK   90  A    between atoms: _223  and  _224
REMARK   91  A    between atoms: _227  and  _229
REMARK   92  A    between atoms: _229  and  _230
REMARK   93  A    between atoms: _232  and  _234
REMARK   94  A    between atoms: _234  and  _235
REMARK   95  A    between atoms: _234  and  _237
REMARK   96  A    between atoms: _237  and  _238
REMARK   97  A    between atoms: _238  and  _239
REMARK   98  A    between atoms: _239  and  _240
REMARK   99  A    between atoms: _249  and  _251
REMARK  100  A    between atoms: _251  and  _252
REMARK  101  A    between atoms: _251  and  _254
REMARK  102  A    between atoms: _254  and  _255
REMARK  103  A    between atoms: _258  and  _260
REMARK  104  A    between atoms: _260  and  _261
REMARK  105  A    between atoms: _260  and  _263
REMARK  106  A    between atoms: _263  and  _264
REMARK                            x       y       z     vdW  Elec       q    Type
REMARK                         _______ _______ _______ _____ _____    ______ ____
ROOT
ATOM      1  C   UNK     1     -10.252 -16.077 -44.163  0.00  0.00    +0.000 C 
ATOM      2  C   UNK     1      -9.546 -14.795 -43.726  0.00  0.00    +0.000 C 
ATOM      3  C   UNK     1     -10.013 -14.301 -42.386  0.00  0.00    +0.000 C 
ATOM      4  O   UNK     1      -9.274 -13.526 -41.762  0.00  0.00    +0.000 OA
ATOM      5  O   UNK     1     -11.127 -14.646 -41.943  0.00  0.00    +0.000 OA
ATOM      6 MN   UNK     1     -10.946 -13.250 -39.910  0.00  0.00    +0.000 Mn
ATOM      7  O   UNK     1      -8.897 -13.516 -38.549  0.00  0.00    +0.000 OA
ATOM      8  O   UNK     1     -11.662 -15.470 -39.229  0.00  0.00    +0.000 OA
ATOM      9  O   UNK     1     -13.217 -12.722 -40.553  0.00  0.00    +0.000 OA
ATOM     10  C   UNK     1     -14.259 -12.735 -41.186  0.00  0.00    +0.000 C 
ATOM     11  C   UNK     1     -14.985 -14.045 -41.461  0.00  0.00    +0.000 C 
ATOM     12  N   UNK     1     -14.236 -14.945 -42.342  0.00  0.00    +0.000 N 
ATOM     13  H   UNK     1     -13.270 -15.235 -42.087  0.00  0.00    +0.000 HD
ATOM     14  C   UNK     1     -14.786 -15.392 -43.465  0.00  0.00    +0.000 C 
ATOM     15  O   UNK     1     -15.890 -15.024 -43.848  0.00  0.00    +0.000 OA
ATOM     16  C   UNK     1     -14.010 -16.422 -44.278  0.00  0.00    +0.000 C 
ATOM     17  N   UNK     1     -12.614 -16.536 -43.890  0.00  0.00    +0.000 N 
ATOM     18  H   UNK     1     -12.332 -17.188 -43.130  0.00  0.00    +0.000 HD
ATOM     19  C   UNK     1     -11.703 -15.802 -44.512  0.00  0.00    +0.000 C 
ATOM     20  O   UNK     1     -12.000 -14.942 -45.346  0.00  0.00    +0.000 OA
ENDROOT
BRANCH  10  21
ATOM     21  N   UNK     1     -14.837 -11.611 -41.616  0.00  0.00    +0.000 NA
ATOM     22  C   UNK     1     -14.155 -10.333 -41.420  0.00  0.00    +0.000 C 
ATOM     23  C   UNK     1     -15.010  -9.355 -42.243  0.00  0.00    +0.000 C 
ATOM     24  C   UNK     1     -15.701 -10.205 -43.230  0.00  0.00    +0.000 C 
ATOM     25  C   UNK     1     -15.988 -11.491 -42.526  0.00  0.00    +0.000 C 
BRANCH  22  26
ATOM     26  C   UNK     1     -14.079  -9.882 -39.961  0.00  0.00    +0.000 C 
ATOM     27  O   UNK     1     -15.108  -9.594 -39.329  0.00  0.00    +0.000 OA
ATOM     28  N   UNK     1     -12.860  -9.827 -39.437  0.00  0.00    +0.000 N 
ATOM     29  H   UNK     1     -12.059 -10.168 -40.006  0.00  0.00    +0.000 HD
BRANCH  28  30
ATOM     30  C   UNK     1     -12.595  -9.310 -38.100  0.00  0.00    +0.000 C 
BRANCH  30  31
ATOM     31  C   UNK     1     -11.946  -7.948 -38.228  0.00  0.00    +0.000 C 
ATOM     32  O   UNK     1     -10.730  -7.815 -38.096  0.00  0.00    +0.000 OA
ENDBRANCH  30  31
BRANCH  30  33
ATOM     33  C   UNK     1     -11.669 -10.243 -37.300  0.00  0.00    +0.000 C 
BRANCH  33  34
ATOM     34  C   UNK     1     -12.290 -11.589 -37.031  0.00  0.00    +0.000 C 
ATOM     35  N   UNK     1     -13.001 -11.704 -35.910  0.00  0.00    +0.000 N 
ATOM     36  H   UNK     1     -13.094 -10.892 -35.267  0.00  0.00    +0.000 HD
ATOM     37  H   UNK     1     -13.463 -12.606 -35.678  0.00  0.00    +0.000 HD
ATOM     38  O   UNK     1     -12.148 -12.515 -37.824  0.00  0.00    +0.000 OA
ENDBRANCH  33  34
ENDBRANCH  30  33
ENDBRANCH  28  30
ENDBRANCH  22  26
ENDBRANCH  10  21
BRANCH  16  39
ATOM     39  C   UNK     1     -14.746 -17.782 -44.150  0.00  0.00    +0.000 C 
ATOM     40  C   UNK     1     -14.069 -18.829 -44.995  0.00  0.00    +0.000 C 
BRANCH  39  41
ATOM     41  O   UNK     1     -14.709 -18.206 -42.790  0.00  0.00    +0.000 OA
ATOM     42  H   UNK     1     -15.178 -19.074 -42.703  0.00  0.00    +0.000 HD
ENDBRANCH  39  41
ENDBRANCH  16  39
BRANCH   1  43
ATOM     43  N   UNK     1      -9.573 -16.648 -45.308  0.00  0.00    +0.000 NA
ATOM     44  H   UNK     1      -9.206 -16.017 -46.048  0.00  0.00    +0.000 HD
ENDBRANCH   1  43
BRANCH   6  45
ATOM     45  O   UNK     1     -10.487 -10.912 -40.332  0.00  0.00    +0.000 OA
BRANCH  45  46
ATOM     46  C   UNK     1      -9.710 -10.085 -40.838  0.00  0.00    +0.000 C 
ATOM     47  O   UNK     1      -8.504 -10.305 -41.049  0.00  0.00    +0.000 OA
BRANCH  46  48
ATOM     48  C   UNK     1     -10.270  -8.737 -41.208  0.00  0.00    +0.000 C 
BRANCH  48  49
ATOM     49  C   UNK     1      -9.190  -7.723 -41.571  0.00  0.00    +0.000 C 
BRANCH  49  50
ATOM     50  C   UNK     1      -9.824  -6.680 -42.460  0.00  0.00    +0.000 C 
ATOM     51  O   UNK     1     -10.385  -5.725 -41.942  0.00  0.00    +0.000 OA
ENDBRANCH  49  50
BRANCH  49  52
ATOM     52  N   UNK     1      -8.620  -7.071 -40.386  0.00  0.00    +0.000 NA
ATOM     53  H   UNK     1      -8.974  -7.307 -39.437  0.00  0.00    +0.000 HD
ENDBRANCH  49  52
ENDBRANCH  48  49
ENDBRANCH  46  48
ENDBRANCH  45  46
ENDBRANCH   6  45
BRANCH  11  54
ATOM     54  C   UNK     1     -15.289 -14.733 -40.123  0.00  0.00    +0.000 C 
BRANCH  54  55
ATOM     55  C   UNK     1     -16.141 -13.881 -39.192  0.00  0.00    +0.000 A 
ATOM     56  C   UNK     1     -15.555 -13.000 -38.287  0.00  0.00    +0.000 A 
ATOM     57  C   UNK     1     -16.334 -12.213 -37.448  0.00  0.00    +0.000 A 
ATOM     58  C   UNK     1     -17.720 -12.307 -37.511  0.00  0.00    +0.000 A 
ATOM     59  C   UNK     1     -18.320 -13.172 -38.397  0.00  0.00    +0.000 A 
ATOM     60  C   UNK     1     -17.530 -13.952 -39.237  0.00  0.00    +0.000 A 
BRANCH  58  61
ATOM     61  O   UNK     1     -18.497 -11.529 -36.676  0.00  0.00    +0.000 OA
ATOM     62  H   UNK     1     -17.910 -10.969 -36.108  0.00  0.00    +0.000 HD
ENDBRANCH  58  61
ENDBRANCH  54  55
ENDBRANCH  11  54
TORSDOF 18
REMARK  Name = ../refined-set-2016/4pf5/4pf5_pocket.pdb
REMARK  106 active torsions:
REMARK  status: ('A' for Active; 'I' for Inactive)
REMARK    1  A    between atoms: _1  and  _3
REMARK    2  A    between atoms: _12  and  _15
REMARK    3  A    between atoms: _15  and  _16
REMARK    4  A    between atoms: _21  and  _24
REMARK    5  A    between atoms: _22  and  _33
REMARK    6  A    between atoms: _24  and  _25
REMARK    7  A    between atoms: _30  and  _31
REMARK    8  A    between atoms: _34  and  _35
REMARK    9  A    between atoms: _40  and  _42
REMARK   10  A    between atoms: _42  and  _43
REMARK   11  A    between atoms: _42  and  _45
REMARK   12  A    between atoms: _45  and  _46
REMARK   13  A    between atoms: _51  and  _53
REMARK   14  A    between atoms: _53  and  _54
REMARK   15  A    between atoms: _53  and  _56
REMARK   16  A    between atoms: _56  and  _57
REMARK   17  A    between atoms: _60  and  _62
REMARK   18  A    between atoms: _62  and  _63
REMARK   19  A    between atoms: _62  and  _65
REMARK   20  A    between atoms: _65  and  _66
REMARK   21  A    between atoms: _69  and  _71
REMARK   22  A    between atoms: _71  and  _72
REMARK   23  A    between atoms: _71  and  _74
REMARK   24  A    between atoms: _74  and  _75
REMARK   25  A    between atoms: _75  and  _77
REMARK   26  A    between atoms: _77  and  MN_267
REMARK   27  A    between atoms: _78  and  _80
REMARK   28  A    between atoms: _80  and  _81
REMARK   29  A    between atoms: _80  and  _83
REMARK   30  A    between atoms: _83  and  _84
REMARK   31  A    between atoms: _86  and  _88
REMARK   32  A    between atoms: _88  and  _89
REMARK   33  A    between atoms: _88  and  _91
REMARK   34  A    between atoms: _91  and  _92
REMARK   35  A    between atoms: _95  and  _97
REMARK   36  A    between atoms: _97  and  _98
REMARK   37  A    between atoms: _100  and  _102
REMARK   38  A    between atoms: _102  and  _103
REMARK   39  A    between atoms: _102  and  _105
REMARK   40  A    between atoms: _105  and  _106
REMARK   41  A    between atoms: _109  and  _111
REMARK   42  A    between atoms: _111  and  _112
REMARK   43  A    between atoms: _111  and  _114
REMARK   44  A    between atoms: _114  and  _115
REMARK   45  A    between atoms: _120  and  _121
REMARK   46  A    between atoms: _123  and  _125
REMARK   47  A    between atoms: _125  and  _126
REMARK   48  A    between atoms: _125  and  _128
REMARK   49  A    between atoms: _128  and  _129
REMARK   50  A    between atoms: _129  and  _130
REMARK   51  A    between atoms: _130  and  _131
REMARK   52  A    between atoms: _131  and  _132
REMARK   53  A    between atoms: _136  and  _138
REMARK   54  A    between atoms: _138  and  _139
REMARK   55  A    between atoms: _138  and  _141
REMARK   56  A    between atoms: _141  and  _142
REMARK   57  A    between atoms: _142  and  _143
REMARK   58  A    between atoms: _146  and  _148
REMARK   59  A    between atoms: _148  and  _149
REMARK   60  A    between atoms: _151  and  _153
REMARK   61  A    between atoms: _153  and  _154
REMARK   62  A    between atoms: _153  and  _156
REMARK   63  A    between atoms: _156  and  _157
REMARK   64  A    between atoms: _159  and  _161
REMARK   65  A    between atoms: _161  and  _162
REMARK   66  A    between atoms: _161  and  _164
REMARK   67  A    between atoms: _164  and  _165
REMARK   68  A    between atoms: _167  and  _169
REMARK   69  A    between atoms: _169  and  _170
REMARK   70  A    between atoms: _169  and  _172
REMARK   71  A    between atoms: _172  and  _173
REMARK   72  A    between atoms: _179  and  _180
REMARK   73  A    between atoms: _185  and  _187
REMARK   74  A    between atoms: _187  and  _188
REMARK   75  A    between atoms: _191  and  _193
REMARK   76  A    between atoms: _193  and  _194
REMARK   77  A    between atoms: _193  and  _196
REMARK   78  A    between atoms: _196  and  _197
REMARK   79  A    between atoms: _200  and  _202
REMARK   80  A    between atoms: _202  and  _203
REMARK   81  A    between atoms: _205  and  _207
REMARK   82  A    between atoms: _207  and  _208
REMARK   83  A    between atoms: _210  and  _212
REMARK   84  A    between atoms: _212  and  _213
REMARK   85  A    between atoms: _212  and  _215
REMARK   86  A    between atoms: _215  and  _216
REMARK   87  A    between atoms: _218  and  _220
REMARK   88  A    between atoms: _220  and  _221
REMARK   89  A    between atoms: _220  and  _223
REMARK   90  A    between atoms: _223  and  _224
REMARK   91  A    between atoms: _227  and  _229
REMARK   92  A    between atoms: _229  and  _230
REMARK   93  A    between atoms: _232  and  _234
REMARK   94  A    between atoms: _234  and  _235
REMARK   95  A    between atoms: _234  and  _237
REMARK   96  A    between atoms: _237  and  _238
REMARK   97  A    between atoms: _238  and  _239
REMARK   98  A    between atoms: _239  and  _240
REMARK   99  A    between atoms: _249  and  _251
REMARK  100  A    between atoms: _251  and  _252
REMARK  101  A    between atoms: _251  and  _254
REMARK  102  A    between atoms: _254  and  _255
REMARK  103  A    between atoms: _258  and  _260
REMARK  104  A    between atoms: _260  and  _261
REMARK  105  A    between atoms: _260  and  _263
REMARK  106  A    between atoms: _263  and  _264
REMARK                            x       y       z     vdW  Elec       q    Type
REMARK                         _______ _______ _______ _____ _____    ______ ____
ROOT
ATOM      1  C   ASP A   1      -9.799  -5.172 -35.120  0.00  0.00    +0.239 C 
ATOM      2  O   ASP A   1      -9.048  -4.466 -34.450  0.00  0.00    -0.274 OA
ATOM      3  N   ILE A   2      -9.366  -6.245 -35.783  0.00  0.00    -0.298 N 
ATOM      4  H   ILE A   2     -10.047  -6.855 -36.278  0.00  0.00    +0.150 HD
ENDROOT
BRANCH   1   5
ATOM      5  CA  ASP A   1     -11.291  -4.840 -35.201  0.00  0.00    +0.156 C 
BRANCH   5   6
ATOM      6  N   ASP A   1     -11.927  -5.358 -36.422  0.00  0.00    -0.238 NA
ATOM      7  H   ASP A   1     -12.719  -6.026 -36.338  0.00  0.00    +0.142 HD
ENDBRANCH   5   6
BRANCH   5   8
ATOM      8  CB  ASP A   1     -11.987  -5.386 -33.951  0.00  0.00    +0.140 C 
BRANCH   8   9
ATOM      9  CG  ASP A   1     -13.377  -4.814 -33.756  0.00  0.00    +0.367 C 
ATOM     10  OD2 ASP A   1     -14.267  -5.545 -33.256  0.00  0.00    -0.246 OA
ATOM     11  OD1 ASP A   1     -13.577  -3.630 -34.106  0.00  0.00    -0.246 OA
ENDBRANCH   8   9
ENDBRANCH   5   8
ENDBRANCH   1   5
BRANCH   3  12
ATOM     12  CA  ILE A   2      -7.936  -6.571 -35.819  0.00  0.00    +0.137 C 
BRANCH  12  13
ATOM     13  CB  ILE A   2      -7.640  -7.991 -35.260  0.00  0.00    +0.026 C 
ATOM     14  CG2 ILE A   2      -7.953  -8.054 -33.770  0.00  0.00    +0.002 C 
BRANCH  13  15
ATOM     15  CG1 ILE A   2      -8.411  -9.080 -36.018  0.00  0.00    +0.002 C 
ATOM     16  CD1 ILE A   2      -7.952 -10.513 -35.651  0.00  0.00    +0.000 C 
ENDBRANCH  13  15
ENDBRANCH  12  13
BRANCH  12  17
ATOM     17  C   ILE A   2      -7.335  -6.478 -37.219  0.00  0.00    +0.227 C 
ATOM     18  O   ILE A   2      -6.397  -7.204 -37.547  0.00  0.00    -0.286 OA
ENDBRANCH  12  17
ENDBRANCH   3  12
TORSDOF 8
REMARK  Name = ../refined-set-2016/4pf5/4pf5_pocket.pdb
REMARK  106 active torsions:
REMARK  status: ('A' for Active; 'I' for Inactive)
REMARK    1  A    between atoms: _1  and  _3
REMARK    2  A    between atoms: _12  and  _15
REMARK    3  A    between atoms: _15  and  _16
REMARK    4  A    between atoms: _21  and  _24
REMARK    5  A    between atoms: _22  and  _33
REMARK    6  A    between atoms: _24  and  _25
REMARK    7  A    between atoms: _30  and  _31
REMARK    8  A    between atoms: _34  and  _35
REMARK    9  A    between atoms: _40  and  _42
REMARK   10  A    between atoms: _42  and  _43
REMARK   11  A    between atoms: _42  and  _45
REMARK   12  A    between atoms: _45  and  _46
REMARK   13  A    between atoms: _51  and  _53
REMARK   14  A    between atoms: _53  and  _54
REMARK   15  A    between atoms: _53  and  _56
REMARK   16  A    between atoms: _56  and  _57
REMARK   17  A    between atoms: _60  and  _62
REMARK   18  A    between atoms: _62  and  _63
REMARK   19  A    between atoms: _62  and  _65
REMARK   20  A    between atoms: _65  and  _66
REMARK   21  A    between atoms: _69  and  _71
REMARK   22  A    between atoms: _71  and  _72
REMARK   23  A    between atoms: _71  and  _74
REMARK   24  A    between atoms: _74  and  _75
REMARK   25  A    between atoms: _75  and  _77
REMARK   26  A    between atoms: _77  and  MN_267
REMARK   27  A    between atoms: _78  and  _80
REMARK   28  A    between atoms: _80  and  _81
REMARK   29  A    between atoms: _80  and  _83
REMARK   30  A    between atoms: _83  and  _84
REMARK   31  A    between atoms: _86  and  _88
REMARK   32  A    between atoms: _88  and  _89
REMARK   33  A    between atoms: _88  and  _91
REMARK   34  A    between atoms: _91  and  _92
REMARK   35  A    between atoms: _95  and  _97
REMARK   36  A    between atoms: _97  and  _98
REMARK   37  A    between atoms: _100  and  _102
REMARK   38  A    between atoms: _102  and  _103
REMARK   39  A    between atoms: _102  and  _105
REMARK   40  A    between atoms: _105  and  _106
REMARK   41  A    between atoms: _109  and  _111
REMARK   42  A    between atoms: _111  and  _112
REMARK   43  A    between atoms: _111  and  _114
REMARK   44  A    between atoms: _114  and  _115
REMARK   45  A    between atoms: _120  and  _121
REMARK   46  A    between atoms: _123  and  _125
REMARK   47  A    between atoms: _125  and  _126
REMARK   48  A    between atoms: _125  and  _128
REMARK   49  A    between atoms: _128  and  _129
REMARK   50  A    between atoms: _129  and  _130
REMARK   51  A    between atoms: _130  and  _131
REMARK   52  A    between atoms: _131  and  _132
REMARK   53  A    between atoms: _136  and  _138
REMARK   54  A    between atoms: _138  and  _139
REMARK   55  A    between atoms: _138  and  _141
REMARK   56  A    between atoms: _141  and  _142
REMARK   57  A    between atoms: _142  and  _143
REMARK   58  A    between atoms: _146  and  _148
REMARK   59  A    between atoms: _148  and  _149
REMARK   60  A    between atoms: _151  and  _153
REMARK   61  A    between atoms: _153  and  _154
REMARK   62  A    between atoms: _153  and  _156
REMARK   63  A    between atoms: _156  and  _157
REMARK   64  A    between atoms: _159  and  _161
REMARK   65  A    between atoms: _161  and  _162
REMARK   66  A    between atoms: _161  and  _164
REMARK   67  A    between atoms: _164  and  _165
REMARK   68  A    between atoms: _167  and  _169
REMARK   69  A    between atoms: _169  and  _170
REMARK   70  A    between atoms: _169  and  _172
REMARK   71  A    between atoms: _172  and  _173
REMARK   72  A    between atoms: _179  and  _180
REMARK   73  A    between atoms: _185  and  _187
REMARK   74  A    between atoms: _187  and  _188
REMARK   75  A    between atoms: _191  and  _193
REMARK   76  A    between atoms: _193  and  _194
REMARK   77  A    between atoms: _193  and  _196
REMARK   78  A    between atoms: _196  and  _197
REMARK   79  A    between atoms: _200  and  _202
REMARK   80  A    between atoms: _202  and  _203
REMARK   81  A    between atoms: _205  and  _207
REMARK   82  A    between atoms: _207  and  _208
REMARK   83  A    between atoms: _210  and  _212
REMARK   84  A    between atoms: _212  and  _213
REMARK   85  A    between atoms: _212  and  _215
REMARK   86  A    between atoms: _215  and  _216
REMARK   87  A    between atoms: _218  and  _220
REMARK   88  A    between atoms: _220  and  _221
REMARK   89  A    between atoms: _220  and  _223
REMARK   90  A    between atoms: _223  and  _224
REMARK   91  A    between atoms: _227  and  _229
REMARK   92  A    between atoms: _229  and  _230
REMARK   93  A    between atoms: _232  and  _234
REMARK   94  A    between atoms: _234  and  _235
REMARK   95  A    between atoms: _234  and  _237
REMARK   96  A    between atoms: _237  and  _238
REMARK   97  A    between atoms: _238  and  _239
REMARK   98  A    between atoms: _239  and  _240
REMARK   99  A    between atoms: _249  and  _251
REMARK  100  A    between atoms: _251  and  _252
REMARK  101  A    between atoms: _251  and  _254
REMARK  102  A    between atoms: _254  and  _255
REMARK  103  A    between atoms: _258  and  _260
REMARK  104  A    between atoms: _260  and  _261
REMARK  105  A    between atoms: _260  and  _263
REMARK  106  A    between atoms: _263  and  _264
REMARK                            x       y       z     vdW  Elec       q    Type
REMARK                         _______ _______ _______ _____ _____    ______ ____
ROOT
ATOM      1  CA  TYR A   5     -19.939 -18.527 -36.163  0.00  0.00    +0.153 C 
ENDROOT
BRANCH   1   2
ATOM      2  C   TYR A   5     -19.087 -19.721 -36.606  0.00  0.00    +0.241 C 
ATOM      3  O   TYR A   5     -18.020 -19.963 -36.050  0.00  0.00    -0.273 OA
ATOM      4  N   LYS A   6     -19.561 -20.470 -37.591  0.00  0.00    -0.297 N 
ATOM      5  H   LYS A   6     -20.355 -20.125 -38.167  0.00  0.00    +0.150 HD
BRANCH   4   6
ATOM      6  CA  LYS A   6     -18.978 -21.771 -37.871  0.00  0.00    +0.149 C 
BRANCH   6   7
ATOM      7  C   LYS A   6     -19.110 -22.188 -39.324  0.00  0.00    +0.241 C 
ATOM      8  N   GLU A   7     -18.473 -23.308 -39.656  0.00  0.00    -0.298 N 
ATOM      9  H   GLU A   7     -18.011 -23.858 -38.904  0.00  0.00    +0.150 HD
ATOM     10  O   LYS A   6     -19.812 -21.549 -40.113  0.00  0.00    -0.273 OA
BRANCH   8  11
ATOM     11  CA  GLU A   7     -18.393 -23.800 -41.025  0.00  0.00    +0.137 C 
BRANCH  11  12
ATOM     12  C   GLU A   7     -17.704 -25.154 -40.993  0.00  0.00    +0.227 C 
ATOM     13  O   GLU A   7     -16.919 -25.412 -40.081  0.00  0.00    -0.286 OA
ENDBRANCH  11  12
BRANCH  11  14
ATOM     14  CB  GLU A   7     -17.607 -22.832 -41.923  0.00  0.00    +0.039 C 
BRANCH  14  15
ATOM     15  CG  GLU A   7     -16.076 -22.915 -41.722  0.00  0.00    +0.116 C 
BRANCH  15  16
ATOM     16  CD  GLU A   7     -15.315 -21.716 -42.296  0.00  0.00    +0.365 C 
ATOM     17  OE2 GLU A   7     -14.079 -21.823 -42.487  0.00  0.00    -0.246 OA
ATOM     18  OE1 GLU A   7     -15.948 -20.666 -42.558  0.00  0.00    -0.246 OA
ENDBRANCH  15  16
ENDBRANCH  14  15
ENDBRANCH  11  14
ENDBRANCH   8  11
ENDBRANCH   6   7
BRANCH   6  19
ATOM     19  CB  LYS A   6     -19.637 -22.834 -36.977  0.00  0.00    +0.029 C 
BRANCH  19  20
ATOM     20  CG  LYS A   6     -21.140 -22.618 -36.772  0.00  0.00    +0.000 C 
BRANCH  20  21
ATOM     21  CD  LYS A   6     -21.564 -22.948 -35.337  0.00  0.00    -0.024 C 
BRANCH  21  22
ATOM     22  CE  LYS A   6     -23.036 -22.625 -35.059  0.00  0.00    -0.086 C 
BRANCH  22  23
ATOM     23  NZ  LYS A   6     -23.295 -21.165 -34.882  0.00  0.00    +0.380 N 
ATOM     24  HZ1 LYS A   6     -22.738 -20.810 -34.079  0.00  0.00    -0.089 HD
ATOM     25  HZ2 LYS A   6     -24.307 -21.014 -34.697  0.00  0.00    -0.089 HD
ATOM     26  HZ3 LYS A   6     -23.020 -20.658 -35.747  0.00  0.00    -0.089 HD
ENDBRANCH  22  23
ENDBRANCH  21  22
ENDBRANCH  20  21
ENDBRANCH  19  20
ENDBRANCH   6  19
ENDBRANCH   4   6
ENDBRANCH   1   2
BRANCH   1  29
ATOM     27  C   LEU A   4     -19.882 -18.324 -33.759  0.00  0.00    +0.241 C 
ATOM     28  O   LEU A   4     -20.883 -19.032 -33.644  0.00  0.00    -0.273 OA
ATOM     29  N   TYR A   5     -19.389 -17.964 -34.943  0.00  0.00    -0.297 N 
ATOM     30  H   TYR A   5     -18.609 -17.278 -34.994  0.00  0.00    +0.150 HD
BRANCH  27  31
ATOM     31  CA  LEU A   4     -19.136 -17.831 -32.534  0.00  0.00    +0.149 C 
BRANCH  31  34
ATOM     32  C   GLY A   3     -17.155 -19.179 -32.855  0.00  0.00    +0.243 C 
ATOM     33  O   GLY A   3     -17.791 -20.212 -32.648  0.00  0.00    -0.273 OA
ATOM     34  N   LEU A   4     -17.704 -17.970 -32.771  0.00  0.00    -0.297 N 
ATOM     35  H   LEU A   4     -17.111 -17.122 -32.875  0.00  0.00    +0.150 HD
BRANCH  32  36
ATOM     36  CA  GLY A   3     -15.692 -19.252 -33.251  0.00  0.00    +0.176 C 
BRANCH  36  39
ATOM     37  C   THR A   2     -14.607 -20.962 -34.590  0.00  0.00    +0.243 C 
ATOM     38  O   THR A   2     -13.724 -21.121 -33.757  0.00  0.00    -0.273 OA
ATOM     39  N   GLY A   3     -15.586 -20.075 -34.441  0.00  0.00    -0.295 N 
ATOM     40  H   GLY A   3     -16.293 -19.968 -35.196  0.00  0.00    +0.150 HD
BRANCH  37  41
ATOM     41  CA  THR A   2     -14.606 -21.773 -35.872  0.00  0.00    +0.176 C 
BRANCH  41  43
ATOM     42  C   SER A   1     -12.489 -22.310 -37.039  0.00  0.00    +0.241 C 
ATOM     43  N   THR A   2     -13.303 -22.406 -35.986  0.00  0.00    -0.295 N 
ATOM     44  H   THR A   2     -12.979 -22.980 -35.182  0.00  0.00    +0.150 HD
ATOM     45  O   SER A   1     -12.825 -21.899 -38.157  0.00  0.00    -0.274 OA
BRANCH  42  46
ATOM     46  CA  SER A   1     -11.084 -22.830 -36.772  0.00  0.00    +0.174 C 
BRANCH  46  47
ATOM     47  N   SER A   1     -10.335 -23.072 -37.994  0.00  0.00    -0.236 NA
ATOM     48  H   SER A   1     -10.542 -22.515 -38.847  0.00  0.00    +0.142 HD
ENDBRANCH  46  47
BRANCH  46  49
ATOM     49  CB  SER A   1     -10.342 -21.856 -35.852  0.00  0.00    +0.163 C 
BRANCH  49  50
ATOM     50  OG  SER A   1     -10.241 -20.567 -36.435  0.00  0.00    -0.380 OA
ATOM     51  H   SER A   1      -9.758 -19.963 -35.817  0.00  0.00    +0.211 HD
ENDBRANCH  49  50
ENDBRANCH  46  49
ENDBRANCH  42  46
ENDBRANCH  41  43
BRANCH  41  52
ATOM     52  CB  THR A   2     -15.749 -22.796 -35.827  0.00  0.00    +0.137 C 
ATOM     53  CG2 THR A   2     -15.840 -23.561 -37.153  0.00  0.00    +0.034 C 
BRANCH  52  54
ATOM     54  OG1 THR A   2     -15.506 -23.714 -34.756  0.00  0.00    -0.382 OA
ATOM     55  HG1 THR A   2     -16.239 -24.378 -34.719  0.00  0.00    +0.210 HD
ENDBRANCH  52  54
ENDBRANCH  41  52
ENDBRANCH  37  41
ENDBRANCH  36  39
ENDBRANCH  32  36
ENDBRANCH  31  34
BRANCH  31  56
ATOM     56  CB  LEU A   4     -19.520 -16.384 -32.219  0.00  0.00    +0.029 C 
BRANCH  56  57
ATOM     57  CG  LEU A   4     -21.032 -16.143 -32.061  0.00  0.00    +0.002 C 
ATOM     58  CD2 LEU A   4     -21.572 -16.930 -30.869  0.00  0.00    +0.000 C 
ATOM     59  CD1 LEU A   4     -21.375 -14.655 -31.938  0.00  0.00    +0.000 C 
ENDBRANCH  56  57
ENDBRANCH  31  56
ENDBRANCH  27  31
ENDBRANCH   1  29
BRANCH   1  60
ATOM     60  CB  TYR A   5     -20.036 -17.460 -37.247  0.00  0.00    +0.055 C 
BRANCH  60  61
ATOM     61  CG  TYR A   5     -20.993 -16.343 -36.868  0.00  0.00    -0.020 A 
ATOM     62  CD2 TYR A   5     -20.555 -15.251 -36.127  0.00  0.00    -0.001 A 
ATOM     63  CE2 TYR A   5     -21.423 -14.231 -35.765  0.00  0.00    +0.036 A 
ATOM     64  CZ  TYR A   5     -22.750 -14.296 -36.136  0.00  0.00    +0.134 A 
ATOM     65  CE1 TYR A   5     -23.221 -15.370 -36.867  0.00  0.00    +0.036 A 
ATOM     66  CD1 TYR A   5     -22.337 -16.397 -37.226  0.00  0.00    -0.001 A 
BRANCH  64  67
ATOM     67  OH  TYR A   5     -23.598 -13.278 -35.770  0.00  0.00    -0.506 OA
ATOM     68  HH  TYR A   5     -23.620 -13.207 -34.783  0.00  0.00    +0.292 HD
ENDBRANCH  64  67
ENDBRANCH  60  61
ENDBRANCH   1  60
TORSDOF 31
REMARK  Name = ../refined-set-2016/4pf5/4pf5_pocket.pdb
REMARK  106 active torsions:
REMARK  status: ('A' for Active; 'I' for Inactive)
REMARK    1  A    between atoms: _1  and  _3
REMARK    2  A    between atoms: _12  and  _15
REMARK    3  A    between atoms: _15  and  _16
REMARK    4  A    between atoms: _21  and  _24
REMARK    5  A    between atoms: _22  and  _33
REMARK    6  A    between atoms: _24  and  _25
REMARK    7  A    between atoms: _30  and  _31
REMARK    8  A    between atoms: _34  and  _35
REMARK    9  A    between atoms: _40  and  _42
REMARK   10  A    between atoms: _42  and  _43
REMARK   11  A    between atoms: _42  and  _45
REMARK   12  A    between atoms: _45  and  _46
REMARK   13  A    between atoms: _51  and  _53
REMARK   14  A    between atoms: _53  and  _54
REMARK   15  A    between atoms: _53  and  _56
REMARK   16  A    between atoms: _56  and  _57
REMARK   17  A    between atoms: _60  and  _62
REMARK   18  A    between atoms: _62  and  _63
REMARK   19  A    between atoms: _62  and  _65
REMARK   20  A    between atoms: _65  and  _66
REMARK   21  A    between atoms: _69  and  _71
REMARK   22  A    between atoms: _71  and  _72
REMARK   23  A    between atoms: _71  and  _74
REMARK   24  A    between atoms: _74  and  _75
REMARK   25  A    between atoms: _75  and  _77
REMARK   26  A    between atoms: _77  and  MN_267
REMARK   27  A    between atoms: _78  and  _80
REMARK   28  A    between atoms: _80  and  _81
REMARK   29  A    between atoms: _80  and  _83
REMARK   30  A    between atoms: _83  and  _84
REMARK   31  A    between atoms: _86  and  _88
REMARK   32  A    between atoms: _88  and  _89
REMARK   33  A    between atoms: _88  and  _91
REMARK   34  A    between atoms: _91  and  _92
REMARK   35  A    between atoms: _95  and  _97
REMARK   36  A    between atoms: _97  and  _98
REMARK   37  A    between atoms: _100  and  _102
REMARK   38  A    between atoms: _102  and  _103
REMARK   39  A    between atoms: _102  and  _105
REMARK   40  A    between atoms: _105  and  _106
REMARK   41  A    between atoms: _109  and  _111
REMARK   42  A    between atoms: _111  and  _112
REMARK   43  A    between atoms: _111  and  _114
REMARK   44  A    between atoms: _114  and  _115
REMARK   45  A    between atoms: _120  and  _121
REMARK   46  A    between atoms: _123  and  _125
REMARK   47  A    between atoms: _125  and  _126
REMARK   48  A    between atoms: _125  and  _128
REMARK   49  A    between atoms: _128  and  _129
REMARK   50  A    between atoms: _129  and  _130
REMARK   51  A    between atoms: _130  and  _131
REMARK   52  A    between atoms: _131  and  _132
REMARK   53  A    between atoms: _136  and  _138
REMARK   54  A    between atoms: _138  and  _139
REMARK   55  A    between atoms: _138  and  _141
REMARK   56  A    between atoms: _141  and  _142
REMARK   57  A    between atoms: _142  and  _143
REMARK   58  A    between atoms: _146  and  _148
REMARK   59  A    between atoms: _148  and  _149
REMARK   60  A    between atoms: _151  and  _153
REMARK   61  A    between atoms: _153  and  _154
REMARK   62  A    between atoms: _153  and  _156
REMARK   63  A    between atoms: _156  and  _157
REMARK   64  A    between atoms: _159  and  _161
REMARK   65  A    between atoms: _161  and  _162
REMARK   66  A    between atoms: _161  and  _164
REMARK   67  A    between atoms: _164  and  _165
REMARK   68  A    between atoms: _167  and  _169
REMARK   69  A    between atoms: _169  and  _170
REMARK   70  A    between atoms: _169  and  _172
REMARK   71  A    between atoms: _172  and  _173
REMARK   72  A    between atoms: _179  and  _180
REMARK   73  A    between atoms: _185  and  _187
REMARK   74  A    between atoms: _187  and  _188
REMARK   75  A    between atoms: _191  and  _193
REMARK   76  A    between atoms: _193  and  _194
REMARK   77  A    between atoms: _193  and  _196
REMARK   78  A    between atoms: _196  and  _197
REMARK   79  A    between atoms: _200  and  _202
REMARK   80  A    between atoms: _202  and  _203
REMARK   81  A    between atoms: _205  and  _207
REMARK   82  A    between atoms: _207  and  _208
REMARK   83  A    between atoms: _210  and  _212
REMARK   84  A    between atoms: _212  and  _213
REMARK   85  A    between atoms: _212  and  _215
REMARK   86  A    between atoms: _215  and  _216
REMARK   87  A    between atoms: _218  and  _220
REMARK   88  A    between atoms: _220  and  _221
REMARK   89  A    between atoms: _220  and  _223
REMARK   90  A    between atoms: _223  and  _224
REMARK   91  A    between atoms: _227  and  _229
REMARK   92  A    between atoms: _229  and  _230
REMARK   93  A    between atoms: _232  and  _234
REMARK   94  A    between atoms: _234  and  _235
REMARK   95  A    between atoms: _234  and  _237
REMARK   96  A    between atoms: _237  and  _238
REMARK   97  A    between atoms: _238  and  _239
REMARK   98  A    between atoms: _239  and  _240
REMARK   99  A    between atoms: _249  and  _251
REMARK  100  A    between atoms: _251  and  _252
REMARK  101  A    between atoms: _251  and  _254
REMARK  102  A    between atoms: _254  and  _255
REMARK  103  A    between atoms: _258  and  _260
REMARK  104  A    between atoms: _260  and  _261
REMARK  105  A    between atoms: _260  and  _263
REMARK  106  A    between atoms: _263  and  _264
REMARK                            x       y       z     vdW  Elec       q    Type
REMARK                         _______ _______ _______ _____ _____    ______ ____
ROOT
ATOM      1  CA  SER A   2     -15.451 -22.798 -30.984  0.00  0.00    +0.178 C 
ENDROOT
BRANCH   1   4
ATOM      2  C   GLY A   1     -17.385 -23.732 -32.183  0.00  0.00    +0.240 C 
ATOM      3  O   GLY A   1     -17.273 -24.859 -31.695  0.00  0.00    -0.274 OA
ATOM      4  N   SER A   2     -16.547 -22.732 -31.943  0.00  0.00    -0.295 N 
ATOM      5  H   SER A   2     -16.680 -21.846 -32.472  0.00  0.00    +0.150 HD
BRANCH   2   6
ATOM      6  CA  GLY A   1     -18.502 -23.419 -33.150  0.00  0.00    +0.169 C 
BRANCH   6   7
ATOM      7  N   GLY A   1     -19.254 -24.617 -33.459  0.00  0.00    -0.236 NA
ATOM      8  H   GLY A   1     -20.199 -24.746 -33.043  0.00  0.00    +0.142 HD
ENDBRANCH   6   7
ENDBRANCH   2   6
ENDBRANCH   1   4
BRANCH   1   9
ATOM      9  C   SER A   2     -14.532 -24.015 -31.158  0.00  0.00    +0.243 C 
ATOM     10  O   SER A   2     -14.054 -24.589 -30.184  0.00  0.00    -0.273 OA
ATOM     11  N   SER A   3     -14.267 -24.378 -32.408  0.00  0.00    -0.296 N 
ATOM     12  H   SER A   3     -14.659 -23.818 -33.192  0.00  0.00    +0.150 HD
BRANCH  11  13
ATOM     13  CA  SER A   3     -13.440 -25.541 -32.710  0.00  0.00    +0.166 C 
BRANCH  13  14
ATOM     14  CB  SER A   3     -12.115 -25.121 -33.351  0.00  0.00    +0.229 C 
ATOM     15  OG  SER A   3     -12.047 -24.134 -34.074  0.00  0.00    -0.286 OA
ENDBRANCH  13  14
BRANCH  13  16
ATOM     16  C   SER A   3     -14.187 -26.499 -33.633  0.00  0.00    +0.165 C 
BRANCH  16  17
ATOM     17  O   SER A   3     -13.442 -27.688 -33.859  0.00  0.00    -0.380 OA
ATOM     18  H   SER A   3     -13.281 -28.144 -32.995  0.00  0.00    +0.211 HD
ENDBRANCH  16  17
ENDBRANCH  13  16
ENDBRANCH  11  13
ENDBRANCH   1   9
BRANCH   1  19
ATOM     19  CB  SER A   2     -16.018 -22.760 -29.572  0.00  0.00    +0.166 C 
BRANCH  19  20
ATOM     20  OG  SER A   2     -16.584 -21.486 -29.324  0.00  0.00    -0.380 OA
ATOM     21  H   SER A   2     -17.309 -21.316 -29.976  0.00  0.00    +0.211 HD
ENDBRANCH  19  20
ENDBRANCH   1  19
TORSDOF 10
REMARK  Name = ../refined-set-2016/4pf5/4pf5_pocket.pdb
REMARK  106 active torsions:
REMARK  status: ('A' for Active; 'I' for Inactive)
REMARK    1  A    between atoms: _1  and  _3
REMARK    2  A    between atoms: _12  and  _15
REMARK    3  A    between atoms: _15  and  _16
REMARK    4  A    between atoms: _21  and  _24
REMARK    5  A    between atoms: _22  and  _33
REMARK    6  A    between atoms: _24  and  _25
REMARK    7  A    between atoms: _30  and  _31
REMARK    8  A    between atoms: _34  and  _35
REMARK    9  A    between atoms: _40  and  _42
REMARK   10  A    between atoms: _42  and  _43
REMARK   11  A    between atoms: _42  and  _45
REMARK   12  A    between atoms: _45  and  _46
REMARK   13  A    between atoms: _51  and  _53
REMARK   14  A    between atoms: _53  and  _54
REMARK   15  A    between atoms: _53  and  _56
REMARK   16  A    between atoms: _56  and  _57
REMARK   17  A    between atoms: _60  and  _62
REMARK   18  A    between atoms: _62  and  _63
REMARK   19  A    between atoms: _62  and  _65
REMARK   20  A    between atoms: _65  and  _66
REMARK   21  A    between atoms: _69  and  _71
REMARK   22  A    between atoms: _71  and  _72
REMARK   23  A    between atoms: _71  and  _74
REMARK   24  A    between atoms: _74  and  _75
REMARK   25  A    between atoms: _75  and  _77
REMARK   26  A    between atoms: _77  and  MN_267
REMARK   27  A    between atoms: _78  and  _80
REMARK   28  A    between atoms: _80  and  _81
REMARK   29  A    between atoms: _80  and  _83
REMARK   30  A    between atoms: _83  and  _84
REMARK   31  A    between atoms: _86  and  _88
REMARK   32  A    between atoms: _88  and  _89
REMARK   33  A    between atoms: _88  and  _91
REMARK   34  A    between atoms: _91  and  _92
REMARK   35  A    between atoms: _95  and  _97
REMARK   36  A    between atoms: _97  and  _98
REMARK   37  A    between atoms: _100  and  _102
REMARK   38  A    between atoms: _102  and  _103
REMARK   39  A    between atoms: _102  and  _105
REMARK   40  A    between atoms: _105  and  _106
REMARK   41  A    between atoms: _109  and  _111
REMARK   42  A    between atoms: _111  and  _112
REMARK   43  A    between atoms: _111  and  _114
REMARK   44  A    between atoms: _114  and  _115
REMARK   45  A    between atoms: _120  and  _121
REMARK   46  A    between atoms: _123  and  _125
REMARK   47  A    between atoms: _125  and  _126
REMARK   48  A    between atoms: _125  and  _128
REMARK   49  A    between atoms: _128  and  _129
REMARK   50  A    between atoms: _129  and  _130
REMARK   51  A    between atoms: _130  and  _131
REMARK   52  A    between atoms: _131  and  _132
REMARK   53  A    between atoms: _136  and  _138
REMARK   54  A    between atoms: _138  and  _139
REMARK   55  A    between atoms: _138  and  _141
REMARK   56  A    between atoms: _141  and  _142
REMARK   57  A    between atoms: _142  and  _143
REMARK   58  A    between atoms: _146  and  _148
REMARK   59  A    between atoms: _148  and  _149
REMARK   60  A    between atoms: _151  and  _153
REMARK   61  A    between atoms: _153  and  _154
REMARK   62  A    between atoms: _153  and  _156
REMARK   63  A    between atoms: _156  and  _157
REMARK   64  A    between atoms: _159  and  _161
REMARK   65  A    between atoms: _161  and  _162
REMARK   66  A    between atoms: _161  and  _164
REMARK   67  A    between atoms: _164  and  _165
REMARK   68  A    between atoms: _167  and  _169
REMARK   69  A    between atoms: _169  and  _170
REMARK   70  A    between atoms: _169  and  _172
REMARK   71  A    between atoms: _172  and  _173
REMARK   72  A    between atoms: _179  and  _180
REMARK   73  A    between atoms: _185  and  _187
REMARK   74  A    between atoms: _187  and  _188
REMARK   75  A    between atoms: _191  and  _193
REMARK   76  A    between atoms: _193  and  _194
REMARK   77  A    between atoms: _193  and  _196
REMARK   78  A    between atoms: _196  and  _197
REMARK   79  A    between atoms: _200  and  _202
REMARK   80  A    between atoms: _202  and  _203
REMARK   81  A    between atoms: _205  and  _207
REMARK   82  A    between atoms: _207  and  _208
REMARK   83  A    between atoms: _210  and  _212
REMARK   84  A    between atoms: _212  and  _213
REMARK   85  A    between atoms: _212  and  _215
REMARK   86  A    between atoms: _215  and  _216
REMARK   87  A    between atoms: _218  and  _220
REMARK   88  A    between atoms: _220  and  _221
REMARK   89  A    between atoms: _220  and  _223
REMARK   90  A    between atoms: _223  and  _224
REMARK   91  A    between atoms: _227  and  _229
REMARK   92  A    between atoms: _229  and  _230
REMARK   93  A    between atoms: _232  and  _234
REMARK   94  A    between atoms: _234  and  _235
REMARK   95  A    between atoms: _234  and  _237
REMARK   96  A    between atoms: _237  and  _238
REMARK   97  A    between atoms: _238  and  _239
REMARK   98  A    between atoms: _239  and  _240
REMARK   99  A    between atoms: _249  and  _251
REMARK  100  A    between atoms: _251  and  _252
REMARK  101  A    between atoms: _251  and  _254
REMARK  102  A    between atoms: _254  and  _255
REMARK  103  A    between atoms: _258  and  _260
REMARK  104  A    between atoms: _260  and  _261
REMARK  105  A    between atoms: _260  and  _263
REMARK  106  A    between atoms: _263  and  _264
REMARK                            x       y       z     vdW  Elec       q    Type
REMARK                         _______ _______ _______ _____ _____    ______ ____
ROOT
ATOM      1  C   PRO A   2     -18.275 -18.180 -41.384  0.00  0.00    +0.241 C 
ATOM      2  N   ALA A   3     -17.586 -18.957 -40.555  0.00  0.00    -0.297 N 
ATOM      3  H   ALA A   3     -17.918 -19.930 -40.399  0.00  0.00    +0.150 HD
ATOM      4  O   PRO A   2     -18.054 -16.983 -41.525  0.00  0.00    -0.273 OA
ENDROOT
BRANCH   1   8
ATOM      5  C   HIS A   1     -21.235 -17.389 -41.463  0.00  0.00    +0.242 C 
ATOM      6  O   HIS A   1     -21.170 -17.838 -40.316  0.00  0.00    -0.273 OA
ATOM      7  N   PRO A   2     -20.478 -17.859 -42.466  0.00  0.00    -0.272 N 
ATOM      8  CA  PRO A   2     -19.418 -18.834 -42.162  0.00  0.00    +0.152 C 
ATOM      9  CB  PRO A   2     -18.957 -19.295 -43.547  0.00  0.00    +0.031 C 
ATOM     10  CG  PRO A   2     -19.226 -18.110 -44.437  0.00  0.00    +0.024 C 
ATOM     11  CD  PRO A   2     -20.509 -17.492 -43.893  0.00  0.00    +0.094 C 
BRANCH   5  12
ATOM     12  CA  HIS A   1     -22.197 -16.247 -41.791  0.00  0.00    +0.151 C 
BRANCH  12  13
ATOM     13  N   HIS A   1     -23.487 -16.716 -42.251  0.00  0.00    -0.238 NA
ATOM     14  H   HIS A   1     -24.037 -17.363 -41.651  0.00  0.00    +0.142 HD
ENDBRANCH  12  13
BRANCH  12  15
ATOM     15  CB  HIS A   1     -22.383 -15.357 -40.564  0.00  0.00    +0.074 C 
BRANCH  15  16
ATOM     16  CG  HIS A   1     -23.303 -14.198 -40.793  0.00  0.00    +0.082 A 
ATOM     17  CD2 HIS A   1     -24.543 -13.939 -40.314  0.00  0.00    +0.115 A 
ATOM     18  NE2 HIS A   1     -24.938 -12.734 -40.848  0.00  0.00    -0.221 NA
ATOM     19  CE1 HIS A   1     -23.978 -12.274 -41.630  0.00  0.00    +0.199 A 
ATOM     20  ND1 HIS A   1     -22.979 -13.143 -41.617  0.00  0.00    -0.227 NA
ENDBRANCH  15  16
ENDBRANCH  12  15
ENDBRANCH   5  12
ENDBRANCH   1   8
BRANCH   2  21
ATOM     21  CA  ALA A   3     -16.382 -18.511 -39.850  0.00  0.00    +0.149 C 
ATOM     22  CB  ALA A   3     -16.729 -17.646 -38.657  0.00  0.00    +0.031 C 
BRANCH  21  23
ATOM     23  C   ALA A   3     -15.623 -19.769 -39.420  0.00  0.00    +0.241 C 
ATOM     24  O   ALA A   3     -16.260 -20.802 -39.228  0.00  0.00    -0.273 OA
ATOM     25  N   ASP A   4     -14.293 -19.728 -39.282  0.00  0.00    -0.297 N 
ATOM     26  H   ASP A   4     -13.811 -20.622 -39.058  0.00  0.00    +0.150 HD
BRANCH  25  27
ATOM     27  CA  ASP A   4     -13.457 -18.533 -39.419  0.00  0.00    +0.160 C 
BRANCH  27  28
ATOM     28  C   ASP A   4     -12.436 -18.609 -40.553  0.00  0.00    +0.241 C 
ATOM     29  O   ASP A   4     -11.921 -17.586 -40.981  0.00  0.00    -0.273 OA
ATOM     30  N   GLY A   5     -12.134 -19.817 -41.023  0.00  0.00    -0.296 N 
ATOM     31  H   GLY A   5     -12.543 -20.657 -40.566  0.00  0.00    +0.150 HD
BRANCH  30  32
ATOM     32  CA  GLY A   5     -11.248 -19.988 -42.157  0.00  0.00    +0.163 C 
BRANCH  32  33
ATOM     33  C   GLY A   5     -10.366 -21.230 -42.109  0.00  0.00    +0.229 C 
ATOM     34  O   GLY A   5     -10.427 -22.010 -41.147  0.00  0.00    -0.286 OA
ENDBRANCH  32  33
ENDBRANCH  30  32
ENDBRANCH  27  28
BRANCH  27  35
ATOM     35  CB  ASP A   4     -12.717 -18.263 -38.109  0.00  0.00    +0.143 C 
BRANCH  35  36
ATOM     36  CG  ASP A   4     -13.521 -17.407 -37.163  0.00  0.00    +0.367 C 
ATOM     37  OD2 ASP A   4     -14.240 -17.970 -36.314  0.00  0.00    -0.246 OA
ATOM     38  OD1 ASP A   4     -13.444 -16.173 -37.286  0.00  0.00    -0.246 OA
ENDBRANCH  35  36
ENDBRANCH  27  35
ENDBRANCH  25  27
ENDBRANCH  21  23
ENDBRANCH   2  21
TORSDOF 13
REMARK  Name = ../refined-set-2016/4pf5/4pf5_pocket.pdb
REMARK  106 active torsions:
REMARK  status: ('A' for Active; 'I' for Inactive)
REMARK    1  A    between atoms: _1  and  _3
REMARK    2  A    between atoms: _12  and  _15
REMARK    3  A    between atoms: _15  and  _16
REMARK    4  A    between atoms: _21  and  _24
REMARK    5  A    between atoms: _22  and  _33
REMARK    6  A    between atoms: _24  and  _25
REMARK    7  A    between atoms: _30  and  _31
REMARK    8  A    between atoms: _34  and  _35
REMARK    9  A    between atoms: _40  and  _42
REMARK   10  A    between atoms: _42  and  _43
REMARK   11  A    between atoms: _42  and  _45
REMARK   12  A    between atoms: _45  and  _46
REMARK   13  A    between atoms: _51  and  _53
REMARK   14  A    between atoms: _53  and  _54
REMARK   15  A    between atoms: _53  and  _56
REMARK   16  A    between atoms: _56  and  _57
REMARK   17  A    between atoms: _60  and  _62
REMARK   18  A    between atoms: _62  and  _63
REMARK   19  A    between atoms: _62  and  _65
REMARK   20  A    between atoms: _65  and  _66
REMARK   21  A    between atoms: _69  and  _71
REMARK   22  A    between atoms: _71  and  _72
REMARK   23  A    between atoms: _71  and  _74
REMARK   24  A    between atoms: _74  and  _75
REMARK   25  A    between atoms: _75  and  _77
REMARK   26  A    between atoms: _77  and  MN_267
REMARK   27  A    between atoms: _78  and  _80
REMARK   28  A    between atoms: _80  and  _81
REMARK   29  A    between atoms: _80  and  _83
REMARK   30  A    between atoms: _83  and  _84
REMARK   31  A    between atoms: _86  and  _88
REMARK   32  A    between atoms: _88  and  _89
REMARK   33  A    between atoms: _88  and  _91
REMARK   34  A    between atoms: _91  and  _92
REMARK   35  A    between atoms: _95  and  _97
REMARK   36  A    between atoms: _97  and  _98
REMARK   37  A    between atoms: _100  and  _102
REMARK   38  A    between atoms: _102  and  _103
REMARK   39  A    between atoms: _102  and  _105
REMARK   40  A    between atoms: _105  and  _106
REMARK   41  A    between atoms: _109  and  _111
REMARK   42  A    between atoms: _111  and  _112
REMARK   43  A    between atoms: _111  and  _114
REMARK   44  A    between atoms: _114  and  _115
REMARK   45  A    between atoms: _120  and  _121
REMARK   46  A    between atoms: _123  and  _125
REMARK   47  A    between atoms: _125  and  _126
REMARK   48  A    between atoms: _125  and  _128
REMARK   49  A    between atoms: _128  and  _129
REMARK   50  A    between atoms: _129  and  _130
REMARK   51  A    between atoms: _130  and  _131
REMARK   52  A    between atoms: _131  and  _132
REMARK   53  A    between atoms: _136  and  _138
REMARK   54  A    between atoms: _138  and  _139
REMARK   55  A    between atoms: _138  and  _141
REMARK   56  A    between atoms: _141  and  _142
REMARK   57  A    between atoms: _142  and  _143
REMARK   58  A    between atoms: _146  and  _148
REMARK   59  A    between atoms: _148  and  _149
REMARK   60  A    between atoms: _151  and  _153
REMARK   61  A    between atoms: _153  and  _154
REMARK   62  A    between atoms: _153  and  _156
REMARK   63  A    between atoms: _156  and  _157
REMARK   64  A    between atoms: _159  and  _161
REMARK   65  A    between atoms: _161  and  _162
REMARK   66  A    between atoms: _161  and  _164
REMARK   67  A    between atoms: _164  and  _165
REMARK   68  A    between atoms: _167  and  _169
REMARK   69  A    between atoms: _169  and  _170
REMARK   70  A    between atoms: _169  and  _172
REMARK   71  A    between atoms: _172  and  _173
REMARK   72  A    between atoms: _179  and  _180
REMARK   73  A    between atoms: _185  and  _187
REMARK   74  A    between atoms: _187  and  _188
REMARK   75  A    between atoms: _191  and  _193
REMARK   76  A    between atoms: _193  and  _194
REMARK   77  A    between atoms: _193  and  _196
REMARK   78  A    between atoms: _196  and  _197
REMARK   79  A    between atoms: _200  and  _202
REMARK   80  A    between atoms: _202  and  _203
REMARK   81  A    between atoms: _205  and  _207
REMARK   82  A    between atoms: _207  and  _208
REMARK   83  A    between atoms: _210  and  _212
REMARK   84  A    between atoms: _212  and  _213
REMARK   85  A    between atoms: _212  and  _215
REMARK   86  A    between atoms: _215  and  _216
REMARK   87  A    between atoms: _218  and  _220
REMARK   88  A    between atoms: _220  and  _221
REMARK   89  A    between atoms: _220  and  _223
REMARK   90  A    between atoms: _223  and  _224
REMARK   91  A    between atoms: _227  and  _229
REMARK   92  A    between atoms: _229  and  _230
REMARK   93  A    between atoms: _232  and  _234
REMARK   94  A    between atoms: _234  and  _235
REMARK   95  A    between atoms: _234  and  _237
REMARK   96  A    between atoms: _237  and  _238
REMARK   97  A    between atoms: _238  and  _239
REMARK   98  A    between atoms: _239  and  _240
REMARK   99  A    between atoms: _249  and  _251
REMARK  100  A    between atoms: _251  and  _252
REMARK  101  A    between atoms: _251  and  _254
REMARK  102  A    between atoms: _254  and  _255
REMARK  103  A    between atoms: _258  and  _260
REMARK  104  A    between atoms: _260  and  _261
REMARK  105  A    between atoms: _260  and  _263
REMARK  106  A    between atoms: _263  and  _264
REMARK                            x       y       z     vdW  Elec       q    Type
REMARK                         _______ _______ _______ _____ _____    ______ ____
ROOT
ATOM      1  CA  ARG A   5     -10.229 -15.267 -35.619  0.00  0.00    +0.149 C 
ENDROOT
BRANCH   1   2
ATOM      2  C   ARG A   5      -8.729 -15.526 -35.726  0.00  0.00    +0.241 C 
ATOM      3  N   LEU A   6      -8.159 -16.237 -34.763  0.00  0.00    -0.297 N 
ATOM      4  H   LEU A   6      -8.738 -16.608 -33.983  0.00  0.00    +0.150 HD
ATOM      5  O   ARG A   5      -8.092 -15.063 -36.668  0.00  0.00    -0.273 OA
BRANCH   3   6
ATOM      6  CA  LEU A   6      -6.718 -16.503 -34.791  0.00  0.00    +0.149 C 
BRANCH   6   7
ATOM      7  C   LEU A   6      -6.358 -17.799 -35.533  0.00  0.00    +0.241 C 
ATOM      8  O   LEU A   6      -5.185 -18.153 -35.613  0.00  0.00    -0.273 OA
ATOM      9  N   LEU A   7      -7.364 -18.485 -36.074  0.00  0.00    -0.298 N 
ATOM     10  H   LEU A   7      -8.333 -18.259 -35.772  0.00  0.00    +0.150 HD
BRANCH   9  11
ATOM     11  CA  LEU A   7      -7.176 -19.548 -37.079  0.00  0.00    +0.137 C 
BRANCH  11  12
ATOM     12  C   LEU A   7      -6.335 -20.727 -36.589  0.00  0.00    +0.227 C 
ATOM     13  O   LEU A   7      -5.836 -21.531 -37.392  0.00  0.00    -0.286 OA
ENDBRANCH  11  12
BRANCH  11  14
ATOM     14  CB  LEU A   7      -6.541 -18.960 -38.354  0.00  0.00    +0.028 C 
BRANCH  14  15
ATOM     15  CG  LEU A   7      -7.424 -17.905 -39.041  0.00  0.00    +0.002 C 
ATOM     16  CD2 LEU A   7      -8.742 -18.545 -39.508  0.00  0.00    +0.000 C 
ATOM     17  CD1 LEU A   7      -6.689 -17.274 -40.199  0.00  0.00    +0.000 C 
ENDBRANCH  14  15
ENDBRANCH  11  14
ENDBRANCH   9  11
ENDBRANCH   6   7
BRANCH   6  18
ATOM     18  CB  LEU A   6      -6.156 -16.534 -33.369  0.00  0.00    +0.029 C 
BRANCH  18  19
ATOM     19  CG  LEU A   6      -6.268 -15.188 -32.642  0.00  0.00    +0.002 C 
ATOM     20  CD2 LEU A   6      -5.625 -15.245 -31.261  0.00  0.00    +0.000 C 
ATOM     21  CD1 LEU A   6      -5.650 -14.078 -33.493  0.00  0.00    +0.000 C 
ENDBRANCH  18  19
ENDBRANCH   6  18
ENDBRANCH   3   6
ENDBRANCH   1   2
BRANCH   1  23
ATOM     22  C   GLY A   4     -11.017 -17.454 -34.879  0.00  0.00    +0.243 C 
ATOM     23  N   ARG A   5     -10.919 -16.139 -34.677  0.00  0.00    -0.297 N 
ATOM     24  H   ARG A   5     -11.347 -15.725 -33.824  0.00  0.00    +0.150 HD
ATOM     25  O   GLY A   4     -10.356 -18.061 -35.732  0.00  0.00    -0.273 OA
BRANCH  22  26
ATOM     26  CA  GLY A   4     -11.996 -18.197 -33.985  0.00  0.00    +0.176 C 
BRANCH  26  29
ATOM     27  C   THR A   3     -10.476 -19.229 -32.409  0.00  0.00    +0.243 C 
ATOM     28  O   THR A   3     -10.018 -18.142 -32.080  0.00  0.00    -0.273 OA
ATOM     29  N   GLY A   4     -11.411 -19.361 -33.341  0.00  0.00    -0.295 N 
ATOM     30  H   GLY A   4     -11.730 -20.312 -33.615  0.00  0.00    +0.150 HD
BRANCH  27  31
ATOM     31  CA  THR A   3      -9.988 -20.505 -31.735  0.00  0.00    +0.176 C 
BRANCH  31  33
ATOM     32  C   SER A   2      -7.642 -19.899 -31.704  0.00  0.00    +0.243 C 
ATOM     33  N   THR A   3      -8.746 -20.229 -31.036  0.00  0.00    -0.295 N 
ATOM     34  H   THR A   3      -8.718 -20.290 -29.998  0.00  0.00    +0.150 HD
ATOM     35  O   SER A   2      -7.563 -19.962 -32.934  0.00  0.00    -0.273 OA
BRANCH  32  36
ATOM     36  CA  SER A   2      -6.456 -19.435 -30.868  0.00  0.00    +0.178 C 
BRANCH  36  39
ATOM     37  C   GLY A   1      -6.814 -18.793 -28.557  0.00  0.00    +0.240 C 
ATOM     38  O   GLY A   1      -6.893 -17.601 -28.865  0.00  0.00    -0.274 OA
ATOM     39  N   SER A   2      -6.646 -19.756 -29.460  0.00  0.00    -0.295 N 
ATOM     40  H   SER A   2      -6.650 -20.751 -29.156  0.00  0.00    +0.150 HD
BRANCH  37  41
ATOM     41  CA  GLY A   1      -6.943 -19.223 -27.099  0.00  0.00    +0.169 C 
BRANCH  41  42
ATOM     42  N   GLY A   1      -6.030 -20.266 -26.658  0.00  0.00    -0.236 NA
ATOM     43  H   GLY A   1      -6.417 -21.174 -26.329  0.00  0.00    +0.142 HD
ENDBRANCH  41  42
ENDBRANCH  37  41
ENDBRANCH  36  39
BRANCH  36  44
ATOM     44  CB  SER A   2      -5.152 -20.058 -31.386  0.00  0.00    +0.166 C 
BRANCH  44  45
ATOM     45  OG  SER A   2      -5.088 -21.432 -31.049  0.00  0.00    -0.380 OA
ATOM     46  H   SER A   2      -5.123 -21.531 -30.065  0.00  0.00    +0.211 HD
ENDBRANCH  44  45
ENDBRANCH  36  44
ENDBRANCH  32  36
ENDBRANCH  31  33
BRANCH  31  47
ATOM     47  CB  THR A   3     -11.085 -21.010 -30.789  0.00  0.00    +0.137 C 
ATOM     48  CG2 THR A   3     -10.698 -22.358 -30.197  0.00  0.00    +0.034 C 
BRANCH  47  49
ATOM     49  OG1 THR A   3     -11.261 -20.053 -29.737  0.00  0.00    -0.382 OA
ATOM     50  HG1 THR A   3     -11.968 -20.369 -29.120  0.00  0.00    +0.210 HD
ENDBRANCH  47  49
ENDBRANCH  31  47
ENDBRANCH  27  31
ENDBRANCH  26  29
ENDBRANCH  22  26
ENDBRANCH   1  23
BRANCH   1  51
ATOM     51  CB  ARG A   5     -10.454 -13.807 -35.236  0.00  0.00    +0.033 C 
BRANCH  51  52
ATOM     52  CG  ARG A   5      -9.886 -13.437 -33.883  0.00  0.00    +0.045 C 
BRANCH  52  53
ATOM     53  CD  ARG A   5     -10.442 -12.084 -33.436  0.00  0.00    +0.174 C 
BRANCH  53  54
ATOM     54  NE  ARG A   5      -9.740 -11.586 -32.261  0.00  0.00    -0.265 N 
ATOM     55  CZ  ARG A   5     -10.011 -10.434 -31.665  0.00  0.00    +0.342 C 
ATOM     56  NH2 ARG A   5      -9.308 -10.069 -30.602  0.00  0.00    -0.292 N 
ATOM     57 HH21 ARG A   5      -9.513  -9.167 -30.128  0.00  0.00    +0.255 HD
ATOM     58 HH22 ARG A   5      -8.551 -10.685 -30.243  0.00  0.00    +0.255 HD
ATOM     59  NH1 ARG A   5     -10.981  -9.652 -32.136  0.00  0.00    -0.292 N 
ATOM     60 HH11 ARG A   5     -11.193  -8.748 -31.668  0.00  0.00    +0.255 HD
ATOM     61 HH12 ARG A   5     -11.526  -9.946 -32.972  0.00  0.00    +0.255 HD
ATOM     62  HE  ARG A   5      -8.978 -12.172 -31.865  0.00  0.00    +0.259 HD
ENDBRANCH  53  54
ENDBRANCH  52  53
ENDBRANCH  51  52
ENDBRANCH   1  51
TORSDOF 26
REMARK  Name = ../refined-set-2016/4pf5/4pf5_pocket.pdb
REMARK  106 active torsions:
REMARK  status: ('A' for Active; 'I' for Inactive)
REMARK    1  A    between atoms: _1  and  _3
REMARK    2  A    between atoms: _12  and  _15
REMARK    3  A    between atoms: _15  and  _16
REMARK    4  A    between atoms: _21  and  _24
REMARK    5  A    between atoms: _22  and  _33
REMARK    6  A    between atoms: _24  and  _25
REMARK    7  A    between atoms: _30  and  _31
REMARK    8  A    between atoms: _34  and  _35
REMARK    9  A    between atoms: _40  and  _42
REMARK   10  A    between atoms: _42  and  _43
REMARK   11  A    between atoms: _42  and  _45
REMARK   12  A    between atoms: _45  and  _46
REMARK   13  A    between atoms: _51  and  _53
REMARK   14  A    between atoms: _53  and  _54
REMARK   15  A    between atoms: _53  and  _56
REMARK   16  A    between atoms: _56  and  _57
REMARK   17  A    between atoms: _60  and  _62
REMARK   18  A    between atoms: _62  and  _63
REMARK   19  A    between atoms: _62  and  _65
REMARK   20  A    between atoms: _65  and  _66
REMARK   21  A    between atoms: _69  and  _71
REMARK   22  A    between atoms: _71  and  _72
REMARK   23  A    between atoms: _71  and  _74
REMARK   24  A    between atoms: _74  and  _75
REMARK   25  A    between atoms: _75  and  _77
REMARK   26  A    between atoms: _77  and  MN_267
REMARK   27  A    between atoms: _78  and  _80
REMARK   28  A    between atoms: _80  and  _81
REMARK   29  A    between atoms: _80  and  _83
REMARK   30  A    between atoms: _83  and  _84
REMARK   31  A    between atoms: _86  and  _88
REMARK   32  A    between atoms: _88  and  _89
REMARK   33  A    between atoms: _88  and  _91
REMARK   34  A    between atoms: _91  and  _92
REMARK   35  A    between atoms: _95  and  _97
REMARK   36  A    between atoms: _97  and  _98
REMARK   37  A    between atoms: _100  and  _102
REMARK   38  A    between atoms: _102  and  _103
REMARK   39  A    between atoms: _102  and  _105
REMARK   40  A    between atoms: _105  and  _106
REMARK   41  A    between atoms: _109  and  _111
REMARK   42  A    between atoms: _111  and  _112
REMARK   43  A    between atoms: _111  and  _114
REMARK   44  A    between atoms: _114  and  _115
REMARK   45  A    between atoms: _120  and  _121
REMARK   46  A    between atoms: _123  and  _125
REMARK   47  A    between atoms: _125  and  _126
REMARK   48  A    between atoms: _125  and  _128
REMARK   49  A    between atoms: _128  and  _129
REMARK   50  A    between atoms: _129  and  _130
REMARK   51  A    between atoms: _130  and  _131
REMARK   52  A    between atoms: _131  and  _132
REMARK   53  A    between atoms: _136  and  _138
REMARK   54  A    between atoms: _138  and  _139
REMARK   55  A    between atoms: _138  and  _141
REMARK   56  A    between atoms: _141  and  _142
REMARK   57  A    between atoms: _142  and  _143
REMARK   58  A    between atoms: _146  and  _148
REMARK   59  A    between atoms: _148  and  _149
REMARK   60  A    between atoms: _151  and  _153
REMARK   61  A    between atoms: _153  and  _154
REMARK   62  A    between atoms: _153  and  _156
REMARK   63  A    between atoms: _156  and  _157
REMARK   64  A    between atoms: _159  and  _161
REMARK   65  A    between atoms: _161  and  _162
REMARK   66  A    between atoms: _161  and  _164
REMARK   67  A    between atoms: _164  and  _165
REMARK   68  A    between atoms: _167  and  _169
REMARK   69  A    between atoms: _169  and  _170
REMARK   70  A    between atoms: _169  and  _172
REMARK   71  A    between atoms: _172  and  _173
REMARK   72  A    between atoms: _179  and  _180
REMARK   73  A    between atoms: _185  and  _187
REMARK   74  A    between atoms: _187  and  _188
REMARK   75  A    between atoms: _191  and  _193
REMARK   76  A    between atoms: _193  and  _194
REMARK   77  A    between atoms: _193  and  _196
REMARK   78  A    between atoms: _196  and  _197
REMARK   79  A    between atoms: _200  and  _202
REMARK   80  A    between atoms: _202  and  _203
REMARK   81  A    between atoms: _205  and  _207
REMARK   82  A    between atoms: _207  and  _208
REMARK   83  A    between atoms: _210  and  _212
REMARK   84  A    between atoms: _212  and  _213
REMARK   85  A    between atoms: _212  and  _215
REMARK   86  A    between atoms: _215  and  _216
REMARK   87  A    between atoms: _218  and  _220
REMARK   88  A    between atoms: _220  and  _221
REMARK   89  A    between atoms: _220  and  _223
REMARK   90  A    between atoms: _223  and  _224
REMARK   91  A    between atoms: _227  and  _229
REMARK   92  A    between atoms: _229  and  _230
REMARK   93  A    between atoms: _232  and  _234
REMARK   94  A    between atoms: _234  and  _235
REMARK   95  A    between atoms: _234  and  _237
REMARK   96  A    between atoms: _237  and  _238
REMARK   97  A    between atoms: _238  and  _239
REMARK   98  A    between atoms: _239  and  _240
REMARK   99  A    between atoms: _249  and  _251
REMARK  100  A    between atoms: _251  and  _252
REMARK  101  A    between atoms: _251  and  _254
REMARK  102  A    between atoms: _254  and  _255
REMARK  103  A    between atoms: _258  and  _260
REMARK  104  A    between atoms: _260  and  _261
REMARK  105  A    between atoms: _260  and  _263
REMARK  106  A    between atoms: _263  and  _264
REMARK                            x       y       z     vdW  Elec       q    Type
REMARK                         _______ _______ _______ _____ _____    ______ ____
ROOT
ATOM      1  O   HOH     1     -17.672 -10.165 -39.661  0.00  0.00    +0.000 OA
ENDROOT
TORSDOF 0
REMARK  Name = ../refined-set-2016/4pf5/4pf5_pocket.pdb
REMARK  106 active torsions:
REMARK  status: ('A' for Active; 'I' for Inactive)
REMARK    1  A    between atoms: _1  and  _3
REMARK    2  A    between atoms: _12  and  _15
REMARK    3  A    between atoms: _15  and  _16
REMARK    4  A    between atoms: _21  and  _24
REMARK    5  A    between atoms: _22  and  _33
REMARK    6  A    between atoms: _24  and  _25
REMARK    7  A    between atoms: _30  and  _31
REMARK    8  A    between atoms: _34  and  _35
REMARK    9  A    between atoms: _40  and  _42
REMARK   10  A    between atoms: _42  and  _43
REMARK   11  A    between atoms: _42  and  _45
REMARK   12  A    between atoms: _45  and  _46
REMARK   13  A    between atoms: _51  and  _53
REMARK   14  A    between atoms: _53  and  _54
REMARK   15  A    between atoms: _53  and  _56
REMARK   16  A    between atoms: _56  and  _57
REMARK   17  A    between atoms: _60  and  _62
REMARK   18  A    between atoms: _62  and  _63
REMARK   19  A    between atoms: _62  and  _65
REMARK   20  A    between atoms: _65  and  _66
REMARK   21  A    between atoms: _69  and  _71
REMARK   22  A    between atoms: _71  and  _72
REMARK   23  A    between atoms: _71  and  _74
REMARK   24  A    between atoms: _74  and  _75
REMARK   25  A    between atoms: _75  and  _77
REMARK   26  A    between atoms: _77  and  MN_267
REMARK   27  A    between atoms: _78  and  _80
REMARK   28  A    between atoms: _80  and  _81
REMARK   29  A    between atoms: _80  and  _83
REMARK   30  A    between atoms: _83  and  _84
REMARK   31  A    between atoms: _86  and  _88
REMARK   32  A    between atoms: _88  and  _89
REMARK   33  A    between atoms: _88  and  _91
REMARK   34  A    between atoms: _91  and  _92
REMARK   35  A    between atoms: _95  and  _97
REMARK   36  A    between atoms: _97  and  _98
REMARK   37  A    between atoms: _100  and  _102
REMARK   38  A    between atoms: _102  and  _103
REMARK   39  A    between atoms: _102  and  _105
REMARK   40  A    between atoms: _105  and  _106
REMARK   41  A    between atoms: _109  and  _111
REMARK   42  A    between atoms: _111  and  _112
REMARK   43  A    between atoms: _111  and  _114
REMARK   44  A    between atoms: _114  and  _115
REMARK   45  A    between atoms: _120  and  _121
REMARK   46  A    between atoms: _123  and  _125
REMARK   47  A    between atoms: _125  and  _126
REMARK   48  A    between atoms: _125  and  _128
REMARK   49  A    between atoms: _128  and  _129
REMARK   50  A    between atoms: _129  and  _130
REMARK   51  A    between atoms: _130  and  _131
REMARK   52  A    between atoms: _131  and  _132
REMARK   53  A    between atoms: _136  and  _138
REMARK   54  A    between atoms: _138  and  _139
REMARK   55  A    between atoms: _138  and  _141
REMARK   56  A    between atoms: _141  and  _142
REMARK   57  A    between atoms: _142  and  _143
REMARK   58  A    between atoms: _146  and  _148
REMARK   59  A    between atoms: _148  and  _149
REMARK   60  A    between atoms: _151  and  _153
REMARK   61  A    between atoms: _153  and  _154
REMARK   62  A    between atoms: _153  and  _156
REMARK   63  A    between atoms: _156  and  _157
REMARK   64  A    between atoms: _159  and  _161
REMARK   65  A    between atoms: _161  and  _162
REMARK   66  A    between atoms: _161  and  _164
REMARK   67  A    between atoms: _164  and  _165
REMARK   68  A    between atoms: _167  and  _169
REMARK   69  A    between atoms: _169  and  _170
REMARK   70  A    between atoms: _169  and  _172
REMARK   71  A    between atoms: _172  and  _173
REMARK   72  A    between atoms: _179  and  _180
REMARK   73  A    between atoms: _185  and  _187
REMARK   74  A    between atoms: _187  and  _188
REMARK   75  A    between atoms: _191  and  _193
REMARK   76  A    between atoms: _193  and  _194
REMARK   77  A    between atoms: _193  and  _196
REMARK   78  A    between atoms: _196  and  _197
REMARK   79  A    between atoms: _200  and  _202
REMARK   80  A    between atoms: _202  and  _203
REMARK   81  A    between atoms: _205  and  _207
REMARK   82  A    between atoms: _207  and  _208
REMARK   83  A    between atoms: _210  and  _212
REMARK   84  A    between atoms: _212  and  _213
REMARK   85  A    between atoms: _212  and  _215
REMARK   86  A    between atoms: _215  and  _216
REMARK   87  A    between atoms: _218  and  _220
REMARK   88  A    between atoms: _220  and  _221
REMARK   89  A    between atoms: _220  and  _223
REMARK   90  A    between atoms: _223  and  _224
REMARK   91  A    between atoms: _227  and  _229
REMARK   92  A    between atoms: _229  and  _230
REMARK   93  A    between atoms: _232  and  _234
REMARK   94  A    between atoms: _234  and  _235
REMARK   95  A    between atoms: _234  and  _237
REMARK   96  A    between atoms: _237  and  _238
REMARK   97  A    between atoms: _238  and  _239
REMARK   98  A    between atoms: _239  and  _240
REMARK   99  A    between atoms: _249  and  _251
REMARK  100  A    between atoms: _251  and  _252
REMARK  101  A    between atoms: _251  and  _254
REMARK  102  A    between atoms: _254  and  _255
REMARK  103  A    between atoms: _258  and  _260
REMARK  104  A    between atoms: _260  and  _261
REMARK  105  A    between atoms: _260  and  _263
REMARK  106  A    between atoms: _263  and  _264
REMARK                            x       y       z     vdW  Elec       q    Type
REMARK                         _______ _______ _______ _____ _____    ______ ____
ROOT
ATOM      1  O   HOH     1     -15.904  -7.626 -37.272  0.00  0.00    +0.000 OA
ENDROOT
TORSDOF 0
REMARK  Name = ../refined-set-2016/4pf5/4pf5_pocket.pdb
REMARK  106 active torsions:
REMARK  status: ('A' for Active; 'I' for Inactive)
REMARK    1  A    between atoms: _1  and  _3
REMARK    2  A    between atoms: _12  and  _15
REMARK    3  A    between atoms: _15  and  _16
REMARK    4  A    between atoms: _21  and  _24
REMARK    5  A    between atoms: _22  and  _33
REMARK    6  A    between atoms: _24  and  _25
REMARK    7  A    between atoms: _30  and  _31
REMARK    8  A    between atoms: _34  and  _35
REMARK    9  A    between atoms: _40  and  _42
REMARK   10  A    between atoms: _42  and  _43
REMARK   11  A    between atoms: _42  and  _45
REMARK   12  A    between atoms: _45  and  _46
REMARK   13  A    between atoms: _51  and  _53
REMARK   14  A    between atoms: _53  and  _54
REMARK   15  A    between atoms: _53  and  _56
REMARK   16  A    between atoms: _56  and  _57
REMARK   17  A    between atoms: _60  and  _62
REMARK   18  A    between atoms: _62  and  _63
REMARK   19  A    between atoms: _62  and  _65
REMARK   20  A    between atoms: _65  and  _66
REMARK   21  A    between atoms: _69  and  _71
REMARK   22  A    between atoms: _71  and  _72
REMARK   23  A    between atoms: _71  and  _74
REMARK   24  A    between atoms: _74  and  _75
REMARK   25  A    between atoms: _75  and  _77
REMARK   26  A    between atoms: _77  and  MN_267
REMARK   27  A    between atoms: _78  and  _80
REMARK   28  A    between atoms: _80  and  _81
REMARK   29  A    between atoms: _80  and  _83
REMARK   30  A    between atoms: _83  and  _84
REMARK   31  A    between atoms: _86  and  _88
REMARK   32  A    between atoms: _88  and  _89
REMARK   33  A    between atoms: _88  and  _91
REMARK   34  A    between atoms: _91  and  _92
REMARK   35  A    between atoms: _95  and  _97
REMARK   36  A    between atoms: _97  and  _98
REMARK   37  A    between atoms: _100  and  _102
REMARK   38  A    between atoms: _102  and  _103
REMARK   39  A    between atoms: _102  and  _105
REMARK   40  A    between atoms: _105  and  _106
REMARK   41  A    between atoms: _109  and  _111
REMARK   42  A    between atoms: _111  and  _112
REMARK   43  A    between atoms: _111  and  _114
REMARK   44  A    between atoms: _114  and  _115
REMARK   45  A    between atoms: _120  and  _121
REMARK   46  A    between atoms: _123  and  _125
REMARK   47  A    between atoms: _125  and  _126
REMARK   48  A    between atoms: _125  and  _128
REMARK   49  A    between atoms: _128  and  _129
REMARK   50  A    between atoms: _129  and  _130
REMARK   51  A    between atoms: _130  and  _131
REMARK   52  A    between atoms: _131  and  _132
REMARK   53  A    between atoms: _136  and  _138
REMARK   54  A    between atoms: _138  and  _139
REMARK   55  A    between atoms: _138  and  _141
REMARK   56  A    between atoms: _141  and  _142
REMARK   57  A    between atoms: _142  and  _143
REMARK   58  A    between atoms: _146  and  _148
REMARK   59  A    between atoms: _148  and  _149
REMARK   60  A    between atoms: _151  and  _153
REMARK   61  A    between atoms: _153  and  _154
REMARK   62  A    between atoms: _153  and  _156
REMARK   63  A    between atoms: _156  and  _157
REMARK   64  A    between atoms: _159  and  _161
REMARK   65  A    between atoms: _161  and  _162
REMARK   66  A    between atoms: _161  and  _164
REMARK   67  A    between atoms: _164  and  _165
REMARK   68  A    between atoms: _167  and  _169
REMARK   69  A    between atoms: _169  and  _170
REMARK   70  A    between atoms: _169  and  _172
REMARK   71  A    between atoms: _172  and  _173
REMARK   72  A    between atoms: _179  and  _180
REMARK   73  A    between atoms: _185  and  _187
REMARK   74  A    between atoms: _187  and  _188
REMARK   75  A    between atoms: _191  and  _193
REMARK   76  A    between atoms: _193  and  _194
REMARK   77  A    between atoms: _193  and  _196
REMARK   78  A    between atoms: _196  and  _197
REMARK   79  A    between atoms: _200  and  _202
REMARK   80  A    between atoms: _202  and  _203
REMARK   81  A    between atoms: _205  and  _207
REMARK   82  A    between atoms: _207  and  _208
REMARK   83  A    between atoms: _210  and  _212
REMARK   84  A    between atoms: _212  and  _213
REMARK   85  A    between atoms: _212  and  _215
REMARK   86  A    between atoms: _215  and  _216
REMARK   87  A    between atoms: _218  and  _220
REMARK   88  A    between atoms: _220  and  _221
REMARK   89  A    between atoms: _220  and  _223
REMARK   90  A    between atoms: _223  and  _224
REMARK   91  A    between atoms: _227  and  _229
REMARK   92  A    between atoms: _229  and  _230
REMARK   93  A    between atoms: _232  and  _234
REMARK   94  A    between atoms: _234  and  _235
REMARK   95  A    between atoms: _234  and  _237
REMARK   96  A    between atoms: _237  and  _238
REMARK   97  A    between atoms: _238  and  _239
REMARK   98  A    between atoms: _239  and  _240
REMARK   99  A    between atoms: _249  and  _251
REMARK  100  A    between atoms: _251  and  _252
REMARK  101  A    between atoms: _251  and  _254
REMARK  102  A    between atoms: _254  and  _255
REMARK  103  A    between atoms: _258  and  _260
REMARK  104  A    between atoms: _260  and  _261
REMARK  105  A    between atoms: _260  and  _263
REMARK  106  A    between atoms: _263  and  _264
REMARK                            x       y       z     vdW  Elec       q    Type
REMARK                         _______ _______ _______ _____ _____    ______ ____
ROOT
ATOM      1  O   HOH     1      -8.956 -13.970 -30.279  0.00  0.00    +0.000 OA
ENDROOT
TORSDOF 0
REMARK  Name = ../refined-set-2016/4pf5/4pf5_pocket.pdb
REMARK  106 active torsions:
REMARK  status: ('A' for Active; 'I' for Inactive)
REMARK    1  A    between atoms: _1  and  _3
REMARK    2  A    between atoms: _12  and  _15
REMARK    3  A    between atoms: _15  and  _16
REMARK    4  A    between atoms: _21  and  _24
REMARK    5  A    between atoms: _22  and  _33
REMARK    6  A    between atoms: _24  and  _25
REMARK    7  A    between atoms: _30  and  _31
REMARK    8  A    between atoms: _34  and  _35
REMARK    9  A    between atoms: _40  and  _42
REMARK   10  A    between atoms: _42  and  _43
REMARK   11  A    between atoms: _42  and  _45
REMARK   12  A    between atoms: _45  and  _46
REMARK   13  A    between atoms: _51  and  _53
REMARK   14  A    between atoms: _53  and  _54
REMARK   15  A    between atoms: _53  and  _56
REMARK   16  A    between atoms: _56  and  _57
REMARK   17  A    between atoms: _60  and  _62
REMARK   18  A    between atoms: _62  and  _63
REMARK   19  A    between atoms: _62  and  _65
REMARK   20  A    between atoms: _65  and  _66
REMARK   21  A    between atoms: _69  and  _71
REMARK   22  A    between atoms: _71  and  _72
REMARK   23  A    between atoms: _71  and  _74
REMARK   24  A    between atoms: _74  and  _75
REMARK   25  A    between atoms: _75  and  _77
REMARK   26  A    between atoms: _77  and  MN_267
REMARK   27  A    between atoms: _78  and  _80
REMARK   28  A    between atoms: _80  and  _81
REMARK   29  A    between atoms: _80  and  _83
REMARK   30  A    between atoms: _83  and  _84
REMARK   31  A    between atoms: _86  and  _88
REMARK   32  A    between atoms: _88  and  _89
REMARK   33  A    between atoms: _88  and  _91
REMARK   34  A    between atoms: _91  and  _92
REMARK   35  A    between atoms: _95  and  _97
REMARK   36  A    between atoms: _97  and  _98
REMARK   37  A    between atoms: _100  and  _102
REMARK   38  A    between atoms: _102  and  _103
REMARK   39  A    between atoms: _102  and  _105
REMARK   40  A    between atoms: _105  and  _106
REMARK   41  A    between atoms: _109  and  _111
REMARK   42  A    between atoms: _111  and  _112
REMARK   43  A    between atoms: _111  and  _114
REMARK   44  A    between atoms: _114  and  _115
REMARK   45  A    between atoms: _120  and  _121
REMARK   46  A    between atoms: _123  and  _125
REMARK   47  A    between atoms: _125  and  _126
REMARK   48  A    between atoms: _125  and  _128
REMARK   49  A    between atoms: _128  and  _129
REMARK   50  A    between atoms: _129  and  _130
REMARK   51  A    between atoms: _130  and  _131
REMARK   52  A    between atoms: _131  and  _132
REMARK   53  A    between atoms: _136  and  _138
REMARK   54  A    between atoms: _138  and  _139
REMARK   55  A    between atoms: _138  and  _141
REMARK   56  A    between atoms: _141  and  _142
REMARK   57  A    between atoms: _142  and  _143
REMARK   58  A    between atoms: _146  and  _148
REMARK   59  A    between atoms: _148  and  _149
REMARK   60  A    between atoms: _151  and  _153
REMARK   61  A    between atoms: _153  and  _154
REMARK   62  A    between atoms: _153  and  _156
REMARK   63  A    between atoms: _156  and  _157
REMARK   64  A    between atoms: _159  and  _161
REMARK   65  A    between atoms: _161  and  _162
REMARK   66  A    between atoms: _161  and  _164
REMARK   67  A    between atoms: _164  and  _165
REMARK   68  A    between atoms: _167  and  _169
REMARK   69  A    between atoms: _169  and  _170
REMARK   70  A    between atoms: _169  and  _172
REMARK   71  A    between atoms: _172  and  _173
REMARK   72  A    between atoms: _179  and  _180
REMARK   73  A    between atoms: _185  and  _187
REMARK   74  A    between atoms: _187  and  _188
REMARK   75  A    between atoms: _191  and  _193
REMARK   76  A    between atoms: _193  and  _194
REMARK   77  A    between atoms: _193  and  _196
REMARK   78  A    between atoms: _196  and  _197
REMARK   79  A    between atoms: _200  and  _202
REMARK   80  A    between atoms: _202  and  _203
REMARK   81  A    between atoms: _205  and  _207
REMARK   82  A    between atoms: _207  and  _208
REMARK   83  A    between atoms: _210  and  _212
REMARK   84  A    between atoms: _212  and  _213
REMARK   85  A    between atoms: _212  and  _215
REMARK   86  A    between atoms: _215  and  _216
REMARK   87  A    between atoms: _218  and  _220
REMARK   88  A    between atoms: _220  and  _221
REMARK   89  A    between atoms: _220  and  _223
REMARK   90  A    between atoms: _223  and  _224
REMARK   91  A    between atoms: _227  and  _229
REMARK   92  A    between atoms: _229  and  _230
REMARK   93  A    between atoms: _232  and  _234
REMARK   94  A    between atoms: _234  and  _235
REMARK   95  A    between atoms: _234  and  _237
REMARK   96  A    between atoms: _237  and  _238
REMARK   97  A    between atoms: _238  and  _239
REMARK   98  A    between atoms: _239  and  _240
REMARK   99  A    between atoms: _249  and  _251
REMARK  100  A    between atoms: _251  and  _252
REMARK  101  A    between atoms: _251  and  _254
REMARK  102  A    between atoms: _254  and  _255
REMARK  103  A    between atoms: _258  and  _260
REMARK  104  A    between atoms: _260  and  _261
REMARK  105  A    between atoms: _260  and  _263
REMARK  106  A    between atoms: _263  and  _264
REMARK                            x       y       z     vdW  Elec       q    Type
REMARK                         _______ _______ _______ _____ _____    ______ ____
ROOT
ATOM      1  O   HOH     1      -8.811 -16.584 -30.726  0.00  0.00    +0.000 OA
ENDROOT
TORSDOF 0
REMARK  Name = ../refined-set-2016/4pf5/4pf5_pocket.pdb
REMARK  106 active torsions:
REMARK  status: ('A' for Active; 'I' for Inactive)
REMARK    1  A    between atoms: _1  and  _3
REMARK    2  A    between atoms: _12  and  _15
REMARK    3  A    between atoms: _15  and  _16
REMARK    4  A    between atoms: _21  and  _24
REMARK    5  A    between atoms: _22  and  _33
REMARK    6  A    between atoms: _24  and  _25
REMARK    7  A    between atoms: _30  and  _31
REMARK    8  A    between atoms: _34  and  _35
REMARK    9  A    between atoms: _40  and  _42
REMARK   10  A    between atoms: _42  and  _43
REMARK   11  A    between atoms: _42  and  _45
REMARK   12  A    between atoms: _45  and  _46
REMARK   13  A    between atoms: _51  and  _53
REMARK   14  A    between atoms: _53  and  _54
REMARK   15  A    between atoms: _53  and  _56
REMARK   16  A    between atoms: _56  and  _57
REMARK   17  A    between atoms: _60  and  _62
REMARK   18  A    between atoms: _62  and  _63
REMARK   19  A    between atoms: _62  and  _65
REMARK   20  A    between atoms: _65  and  _66
REMARK   21  A    between atoms: _69  and  _71
REMARK   22  A    between atoms: _71  and  _72
REMARK   23  A    between atoms: _71  and  _74
REMARK   24  A    between atoms: _74  and  _75
REMARK   25  A    between atoms: _75  and  _77
REMARK   26  A    between atoms: _77  and  MN_267
REMARK   27  A    between atoms: _78  and  _80
REMARK   28  A    between atoms: _80  and  _81
REMARK   29  A    between atoms: _80  and  _83
REMARK   30  A    between atoms: _83  and  _84
REMARK   31  A    between atoms: _86  and  _88
REMARK   32  A    between atoms: _88  and  _89
REMARK   33  A    between atoms: _88  and  _91
REMARK   34  A    between atoms: _91  and  _92
REMARK   35  A    between atoms: _95  and  _97
REMARK   36  A    between atoms: _97  and  _98
REMARK   37  A    between atoms: _100  and  _102
REMARK   38  A    between atoms: _102  and  _103
REMARK   39  A    between atoms: _102  and  _105
REMARK   40  A    between atoms: _105  and  _106
REMARK   41  A    between atoms: _109  and  _111
REMARK   42  A    between atoms: _111  and  _112
REMARK   43  A    between atoms: _111  and  _114
REMARK   44  A    between atoms: _114  and  _115
REMARK   45  A    between atoms: _120  and  _121
REMARK   46  A    between atoms: _123  and  _125
REMARK   47  A    between atoms: _125  and  _126
REMARK   48  A    between atoms: _125  and  _128
REMARK   49  A    between atoms: _128  and  _129
REMARK   50  A    between atoms: _129  and  _130
REMARK   51  A    between atoms: _130  and  _131
REMARK   52  A    between atoms: _131  and  _132
REMARK   53  A    between atoms: _136  and  _138
REMARK   54  A    between atoms: _138  and  _139
REMARK   55  A    between atoms: _138  and  _141
REMARK   56  A    between atoms: _141  and  _142
REMARK   57  A    between atoms: _142  and  _143
REMARK   58  A    between atoms: _146  and  _148
REMARK   59  A    between atoms: _148  and  _149
REMARK   60  A    between atoms: _151  and  _153
REMARK   61  A    between atoms: _153  and  _154
REMARK   62  A    between atoms: _153  and  _156
REMARK   63  A    between atoms: _156  and  _157
REMARK   64  A    between atoms: _159  and  _161
REMARK   65  A    between atoms: _161  and  _162
REMARK   66  A    between atoms: _161  and  _164
REMARK   67  A    between atoms: _164  and  _165
REMARK   68  A    between atoms: _167  and  _169
REMARK   69  A    between atoms: _169  and  _170
REMARK   70  A    between atoms: _169  and  _172
REMARK   71  A    between atoms: _172  and  _173
REMARK   72  A    between atoms: _179  and  _180
REMARK   73  A    between atoms: _185  and  _187
REMARK   74  A    between atoms: _187  and  _188
REMARK   75  A    between atoms: _191  and  _193
REMARK   76  A    between atoms: _193  and  _194
REMARK   77  A    between atoms: _193  and  _196
REMARK   78  A    between atoms: _196  and  _197
REMARK   79  A    between atoms: _200  and  _202
REMARK   80  A    between atoms: _202  and  _203
REMARK   81  A    between atoms: _205  and  _207
REMARK   82  A    between atoms: _207  and  _208
REMARK   83  A    between atoms: _210  and  _212
REMARK   84  A    between atoms: _212  and  _213
REMARK   85  A    between atoms: _212  and  _215
REMARK   86  A    between atoms: _215  and  _216
REMARK   87  A    between atoms: _218  and  _220
REMARK   88  A    between atoms: _220  and  _221
REMARK   89  A    between atoms: _220  and  _223
REMARK   90  A    between atoms: _223  and  _224
REMARK   91  A    between atoms: _227  and  _229
REMARK   92  A    between atoms: _229  and  _230
REMARK   93  A    between atoms: _232  and  _234
REMARK   94  A    between atoms: _234  and  _235
REMARK   95  A    between atoms: _234  and  _237
REMARK   96  A    between atoms: _237  and  _238
REMARK   97  A    between atoms: _238  and  _239
REMARK   98  A    between atoms: _239  and  _240
REMARK   99  A    between atoms: _249  and  _251
REMARK  100  A    between atoms: _251  and  _252
REMARK  101  A    between atoms: _251  and  _254
REMARK  102  A    between atoms: _254  and  _255
REMARK  103  A    between atoms: _258  and  _260
REMARK  104  A    between atoms: _260  and  _261
REMARK  105  A    between atoms: _260  and  _263
REMARK  106  A    between atoms: _263  and  _264
REMARK                            x       y       z     vdW  Elec       q    Type
REMARK                         _______ _______ _______ _____ _____    ______ ____
ROOT
ATOM      1  O   HOH     1     -17.323  -9.227 -35.836  0.00  0.00    +0.000 OA
ENDROOT
TORSDOF 0
REMARK  Name = ../refined-set-2016/4pf5/4pf5_pocket.pdb
REMARK  106 active torsions:
REMARK  status: ('A' for Active; 'I' for Inactive)
REMARK    1  A    between atoms: _1  and  _3
REMARK    2  A    between atoms: _12  and  _15
REMARK    3  A    between atoms: _15  and  _16
REMARK    4  A    between atoms: _21  and  _24
REMARK    5  A    between atoms: _22  and  _33
REMARK    6  A    between atoms: _24  and  _25
REMARK    7  A    between atoms: _30  and  _31
REMARK    8  A    between atoms: _34  and  _35
REMARK    9  A    between atoms: _40  and  _42
REMARK   10  A    between atoms: _42  and  _43
REMARK   11  A    between atoms: _42  and  _45
REMARK   12  A    between atoms: _45  and  _46
REMARK   13  A    between atoms: _51  and  _53
REMARK   14  A    between atoms: _53  and  _54
REMARK   15  A    between atoms: _53  and  _56
REMARK   16  A    between atoms: _56  and  _57
REMARK   17  A    between atoms: _60  and  _62
REMARK   18  A    between atoms: _62  and  _63
REMARK   19  A    between atoms: _62  and  _65
REMARK   20  A    between atoms: _65  and  _66
REMARK   21  A    between atoms: _69  and  _71
REMARK   22  A    between atoms: _71  and  _72
REMARK   23  A    between atoms: _71  and  _74
REMARK   24  A    between atoms: _74  and  _75
REMARK   25  A    between atoms: _75  and  _77
REMARK   26  A    between atoms: _77  and  MN_267
REMARK   27  A    between atoms: _78  and  _80
REMARK   28  A    between atoms: _80  and  _81
REMARK   29  A    between atoms: _80  and  _83
REMARK   30  A    between atoms: _83  and  _84
REMARK   31  A    between atoms: _86  and  _88
REMARK   32  A    between atoms: _88  and  _89
REMARK   33  A    between atoms: _88  and  _91
REMARK   34  A    between atoms: _91  and  _92
REMARK   35  A    between atoms: _95  and  _97
REMARK   36  A    between atoms: _97  and  _98
REMARK   37  A    between atoms: _100  and  _102
REMARK   38  A    between atoms: _102  and  _103
REMARK   39  A    between atoms: _102  and  _105
REMARK   40  A    between atoms: _105  and  _106
REMARK   41  A    between atoms: _109  and  _111
REMARK   42  A    between atoms: _111  and  _112
REMARK   43  A    between atoms: _111  and  _114
REMARK   44  A    between atoms: _114  and  _115
REMARK   45  A    between atoms: _120  and  _121
REMARK   46  A    between atoms: _123  and  _125
REMARK   47  A    between atoms: _125  and  _126
REMARK   48  A    between atoms: _125  and  _128
REMARK   49  A    between atoms: _128  and  _129
REMARK   50  A    between atoms: _129  and  _130
REMARK   51  A    between atoms: _130  and  _131
REMARK   52  A    between atoms: _131  and  _132
REMARK   53  A    between atoms: _136  and  _138
REMARK   54  A    between atoms: _138  and  _139
REMARK   55  A    between atoms: _138  and  _141
REMARK   56  A    between atoms: _141  and  _142
REMARK   57  A    between atoms: _142  and  _143
REMARK   58  A    between atoms: _146  and  _148
REMARK   59  A    between atoms: _148  and  _149
REMARK   60  A    between atoms: _151  and  _153
REMARK   61  A    between atoms: _153  and  _154
REMARK   62  A    between atoms: _153  and  _156
REMARK   63  A    between atoms: _156  and  _157
REMARK   64  A    between atoms: _159  and  _161
REMARK   65  A    between atoms: _161  and  _162
REMARK   66  A    between atoms: _161  and  _164
REMARK   67  A    between atoms: _164  and  _165
REMARK   68  A    between atoms: _167  and  _169
REMARK   69  A    between atoms: _169  and  _170
REMARK   70  A    between atoms: _169  and  _172
REMARK   71  A    between atoms: _172  and  _173
REMARK   72  A    between atoms: _179  and  _180
REMARK   73  A    between atoms: _185  and  _187
REMARK   74  A    between atoms: _187  and  _188
REMARK   75  A    between atoms: _191  and  _193
REMARK   76  A    between atoms: _193  and  _194
REMARK   77  A    between atoms: _193  and  _196
REMARK   78  A    between atoms: _196  and  _197
REMARK   79  A    between atoms: _200  and  _202
REMARK   80  A    between atoms: _202  and  _203
REMARK   81  A    between atoms: _205  and  _207
REMARK   82  A    between atoms: _207  and  _208
REMARK   83  A    between atoms: _210  and  _212
REMARK   84  A    between atoms: _212  and  _213
REMARK   85  A    between atoms: _212  and  _215
REMARK   86  A    between atoms: _215  and  _216
REMARK   87  A    between atoms: _218  and  _220
REMARK   88  A    between atoms: _220  and  _221
REMARK   89  A    between atoms: _220  and  _223
REMARK   90  A    between atoms: _223  and  _224
REMARK   91  A    between atoms: _227  and  _229
REMARK   92  A    between atoms: _229  and  _230
REMARK   93  A    between atoms: _232  and  _234
REMARK   94  A    between atoms: _234  and  _235
REMARK   95  A    between atoms: _234  and  _237
REMARK   96  A    between atoms: _237  and  _238
REMARK   97  A    between atoms: _238  and  _239
REMARK   98  A    between atoms: _239  and  _240
REMARK   99  A    between atoms: _249  and  _251
REMARK  100  A    between atoms: _251  and  _252
REMARK  101  A    between atoms: _251  and  _254
REMARK  102  A    between atoms: _254  and  _255
REMARK  103  A    between atoms: _258  and  _260
REMARK  104  A    between atoms: _260  and  _261
REMARK  105  A    between atoms: _260  and  _263
REMARK  106  A    between atoms: _263  and  _264
REMARK                            x       y       z     vdW  Elec       q    Type
REMARK                         _______ _______ _______ _____ _____    ______ ____
ROOT
ATOM      1  O   HOH     1     -11.613 -13.998 -30.379  0.00  0.00    +0.000 OA
ENDROOT
TORSDOF 0
REMARK  Name = ../refined-set-2016/4pf5/4pf5_pocket.pdb
REMARK  106 active torsions:
REMARK  status: ('A' for Active; 'I' for Inactive)
REMARK    1  A    between atoms: _1  and  _3
REMARK    2  A    between atoms: _12  and  _15
REMARK    3  A    between atoms: _15  and  _16
REMARK    4  A    between atoms: _21  and  _24
REMARK    5  A    between atoms: _22  and  _33
REMARK    6  A    between atoms: _24  and  _25
REMARK    7  A    between atoms: _30  and  _31
REMARK    8  A    between atoms: _34  and  _35
REMARK    9  A    between atoms: _40  and  _42
REMARK   10  A    between atoms: _42  and  _43
REMARK   11  A    between atoms: _42  and  _45
REMARK   12  A    between atoms: _45  and  _46
REMARK   13  A    between atoms: _51  and  _53
REMARK   14  A    between atoms: _53  and  _54
REMARK   15  A    between atoms: _53  and  _56
REMARK   16  A    between atoms: _56  and  _57
REMARK   17  A    between atoms: _60  and  _62
REMARK   18  A    between atoms: _62  and  _63
REMARK   19  A    between atoms: _62  and  _65
REMARK   20  A    between atoms: _65  and  _66
REMARK   21  A    between atoms: _69  and  _71
REMARK   22  A    between atoms: _71  and  _72
REMARK   23  A    between atoms: _71  and  _74
REMARK   24  A    between atoms: _74  and  _75
REMARK   25  A    between atoms: _75  and  _77
REMARK   26  A    between atoms: _77  and  MN_267
REMARK   27  A    between atoms: _78  and  _80
REMARK   28  A    between atoms: _80  and  _81
REMARK   29  A    between atoms: _80  and  _83
REMARK   30  A    between atoms: _83  and  _84
REMARK   31  A    between atoms: _86  and  _88
REMARK   32  A    between atoms: _88  and  _89
REMARK   33  A    between atoms: _88  and  _91
REMARK   34  A    between atoms: _91  and  _92
REMARK   35  A    between atoms: _95  and  _97
REMARK   36  A    between atoms: _97  and  _98
REMARK   37  A    between atoms: _100  and  _102
REMARK   38  A    between atoms: _102  and  _103
REMARK   39  A    between atoms: _102  and  _105
REMARK   40  A    between atoms: _105  and  _106
REMARK   41  A    between atoms: _109  and  _111
REMARK   42  A    between atoms: _111  and  _112
REMARK   43  A    between atoms: _111  and  _114
REMARK   44  A    between atoms: _114  and  _115
REMARK   45  A    between atoms: _120  and  _121
REMARK   46  A    between atoms: _123  and  _125
REMARK   47  A    between atoms: _125  and  _126
REMARK   48  A    between atoms: _125  and  _128
REMARK   49  A    between atoms: _128  and  _129
REMARK   50  A    between atoms: _129  and  _130
REMARK   51  A    between atoms: _130  and  _131
REMARK   52  A    between atoms: _131  and  _132
REMARK   53  A    between atoms: _136  and  _138
REMARK   54  A    between atoms: _138  and  _139
REMARK   55  A    between atoms: _138  and  _141
REMARK   56  A    between atoms: _141  and  _142
REMARK   57  A    between atoms: _142  and  _143
REMARK   58  A    between atoms: _146  and  _148
REMARK   59  A    between atoms: _148  and  _149
REMARK   60  A    between atoms: _151  and  _153
REMARK   61  A    between atoms: _153  and  _154
REMARK   62  A    between atoms: _153  and  _156
REMARK   63  A    between atoms: _156  and  _157
REMARK   64  A    between atoms: _159  and  _161
REMARK   65  A    between atoms: _161  and  _162
REMARK   66  A    between atoms: _161  and  _164
REMARK   67  A    between atoms: _164  and  _165
REMARK   68  A    between atoms: _167  and  _169
REMARK   69  A    between atoms: _169  and  _170
REMARK   70  A    between atoms: _169  and  _172
REMARK   71  A    between atoms: _172  and  _173
REMARK   72  A    between atoms: _179  and  _180
REMARK   73  A    between atoms: _185  and  _187
REMARK   74  A    between atoms: _187  and  _188
REMARK   75  A    between atoms: _191  and  _193
REMARK   76  A    between atoms: _193  and  _194
REMARK   77  A    between atoms: _193  and  _196
REMARK   78  A    between atoms: _196  and  _197
REMARK   79  A    between atoms: _200  and  _202
REMARK   80  A    between atoms: _202  and  _203
REMARK   81  A    between atoms: _205  and  _207
REMARK   82  A    between atoms: _207  and  _208
REMARK   83  A    between atoms: _210  and  _212
REMARK   84  A    between atoms: _212  and  _213
REMARK   85  A    between atoms: _212  and  _215
REMARK   86  A    between atoms: _215  and  _216
REMARK   87  A    between atoms: _218  and  _220
REMARK   88  A    between atoms: _220  and  _221
REMARK   89  A    between atoms: _220  and  _223
REMARK   90  A    between atoms: _223  and  _224
REMARK   91  A    between atoms: _227  and  _229
REMARK   92  A    between atoms: _229  and  _230
REMARK   93  A    between atoms: _232  and  _234
REMARK   94  A    between atoms: _234  and  _235
REMARK   95  A    between atoms: _234  and  _237
REMARK   96  A    between atoms: _237  and  _238
REMARK   97  A    between atoms: _238  and  _239
REMARK   98  A    between atoms: _239  and  _240
REMARK   99  A    between atoms: _249  and  _251
REMARK  100  A    between atoms: _251  and  _252
REMARK  101  A    between atoms: _251  and  _254
REMARK  102  A    between atoms: _254  and  _255
REMARK  103  A    between atoms: _258  and  _260
REMARK  104  A    between atoms: _260  and  _261
REMARK  105  A    between atoms: _260  and  _263
REMARK  106  A    between atoms: _263  and  _264
REMARK                            x       y       z     vdW  Elec       q    Type
REMARK                         _______ _______ _______ _____ _____    ______ ____
ROOT
ATOM      1  O   HOH     1     -21.412 -21.375 -31.767  0.00  0.00    +0.000 OA
ENDROOT
TORSDOF 0
REMARK  Name = ../refined-set-2016/4pf5/4pf5_pocket.pdb
REMARK  106 active torsions:
REMARK  status: ('A' for Active; 'I' for Inactive)
REMARK    1  A    between atoms: _1  and  _3
REMARK    2  A    between atoms: _12  and  _15
REMARK    3  A    between atoms: _15  and  _16
REMARK    4  A    between atoms: _21  and  _24
REMARK    5  A    between atoms: _22  and  _33
REMARK    6  A    between atoms: _24  and  _25
REMARK    7  A    between atoms: _30  and  _31
REMARK    8  A    between atoms: _34  and  _35
REMARK    9  A    between atoms: _40  and  _42
REMARK   10  A    between atoms: _42  and  _43
REMARK   11  A    between atoms: _42  and  _45
REMARK   12  A    between atoms: _45  and  _46
REMARK   13  A    between atoms: _51  and  _53
REMARK   14  A    between atoms: _53  and  _54
REMARK   15  A    between atoms: _53  and  _56
REMARK   16  A    between atoms: _56  and  _57
REMARK   17  A    between atoms: _60  and  _62
REMARK   18  A    between atoms: _62  and  _63
REMARK   19  A    between atoms: _62  and  _65
REMARK   20  A    between atoms: _65  and  _66
REMARK   21  A    between atoms: _69  and  _71
REMARK   22  A    between atoms: _71  and  _72
REMARK   23  A    between atoms: _71  and  _74
REMARK   24  A    between atoms: _74  and  _75
REMARK   25  A    between atoms: _75  and  _77
REMARK   26  A    between atoms: _77  and  MN_267
REMARK   27  A    between atoms: _78  and  _80
REMARK   28  A    between atoms: _80  and  _81
REMARK   29  A    between atoms: _80  and  _83
REMARK   30  A    between atoms: _83  and  _84
REMARK   31  A    between atoms: _86  and  _88
REMARK   32  A    between atoms: _88  and  _89
REMARK   33  A    between atoms: _88  and  _91
REMARK   34  A    between atoms: _91  and  _92
REMARK   35  A    between atoms: _95  and  _97
REMARK   36  A    between atoms: _97  and  _98
REMARK   37  A    between atoms: _100  and  _102
REMARK   38  A    between atoms: _102  and  _103
REMARK   39  A    between atoms: _102  and  _105
REMARK   40  A    between atoms: _105  and  _106
REMARK   41  A    between atoms: _109  and  _111
REMARK   42  A    between atoms: _111  and  _112
REMARK   43  A    between atoms: _111  and  _114
REMARK   44  A    between atoms: _114  and  _115
REMARK   45  A    between atoms: _120  and  _121
REMARK   46  A    between atoms: _123  and  _125
REMARK   47  A    between atoms: _125  and  _126
REMARK   48  A    between atoms: _125  and  _128
REMARK   49  A    between atoms: _128  and  _129
REMARK   50  A    between atoms: _129  and  _130
REMARK   51  A    between atoms: _130  and  _131
REMARK   52  A    between atoms: _131  and  _132
REMARK   53  A    between atoms: _136  and  _138
REMARK   54  A    between atoms: _138  and  _139
REMARK   55  A    between atoms: _138  and  _141
REMARK   56  A    between atoms: _141  and  _142
REMARK   57  A    between atoms: _142  and  _143
REMARK   58  A    between atoms: _146  and  _148
REMARK   59  A    between atoms: _148  and  _149
REMARK   60  A    between atoms: _151  and  _153
REMARK   61  A    between atoms: _153  and  _154
REMARK   62  A    between atoms: _153  and  _156
REMARK   63  A    between atoms: _156  and  _157
REMARK   64  A    between atoms: _159  and  _161
REMARK   65  A    between atoms: _161  and  _162
REMARK   66  A    between atoms: _161  and  _164
REMARK   67  A    between atoms: _164  and  _165
REMARK   68  A    between atoms: _167  and  _169
REMARK   69  A    between atoms: _169  and  _170
REMARK   70  A    between atoms: _169  and  _172
REMARK   71  A    between atoms: _172  and  _173
REMARK   72  A    between atoms: _179  and  _180
REMARK   73  A    between atoms: _185  and  _187
REMARK   74  A    between atoms: _187  and  _188
REMARK   75  A    between atoms: _191  and  _193
REMARK   76  A    between atoms: _193  and  _194
REMARK   77  A    between atoms: _193  and  _196
REMARK   78  A    between atoms: _196  and  _197
REMARK   79  A    between atoms: _200  and  _202
REMARK   80  A    between atoms: _202  and  _203
REMARK   81  A    between atoms: _205  and  _207
REMARK   82  A    between atoms: _207  and  _208
REMARK   83  A    between atoms: _210  and  _212
REMARK   84  A    between atoms: _212  and  _213
REMARK   85  A    between atoms: _212  and  _215
REMARK   86  A    between atoms: _215  and  _216
REMARK   87  A    between atoms: _218  and  _220
REMARK   88  A    between atoms: _220  and  _221
REMARK   89  A    between atoms: _220  and  _223
REMARK   90  A    between atoms: _223  and  _224
REMARK   91  A    between atoms: _227  and  _229
REMARK   92  A    between atoms: _229  and  _230
REMARK   93  A    between atoms: _232  and  _234
REMARK   94  A    between atoms: _234  and  _235
REMARK   95  A    between atoms: _234  and  _237
REMARK   96  A    between atoms: _237  and  _238
REMARK   97  A    between atoms: _238  and  _239
REMARK   98  A    between atoms: _239  and  _240
REMARK   99  A    between atoms: _249  and  _251
REMARK  100  A    between atoms: _251  and  _252
REMARK  101  A    between atoms: _251  and  _254
REMARK  102  A    between atoms: _254  and  _255
REMARK  103  A    between atoms: _258  and  _260
REMARK  104  A    between atoms: _260  and  _261
REMARK  105  A    between atoms: _260  and  _263
REMARK  106  A    between atoms: _263  and  _264
REMARK                            x       y       z     vdW  Elec       q    Type
REMARK                         _______ _______ _______ _____ _____    ______ ____
ROOT
ATOM      1  O   HOH     1     -19.567 -21.158 -29.813  0.00  0.00    +0.000 OA
ENDROOT
TORSDOF 0
REMARK  Name = ../refined-set-2016/4pf5/4pf5_pocket.pdb
REMARK  106 active torsions:
REMARK  status: ('A' for Active; 'I' for Inactive)
REMARK    1  A    between atoms: _1  and  _3
REMARK    2  A    between atoms: _12  and  _15
REMARK    3  A    between atoms: _15  and  _16
REMARK    4  A    between atoms: _21  and  _24
REMARK    5  A    between atoms: _22  and  _33
REMARK    6  A    between atoms: _24  and  _25
REMARK    7  A    between atoms: _30  and  _31
REMARK    8  A    between atoms: _34  and  _35
REMARK    9  A    between atoms: _40  and  _42
REMARK   10  A    between atoms: _42  and  _43
REMARK   11  A    between atoms: _42  and  _45
REMARK   12  A    between atoms: _45  and  _46
REMARK   13  A    between atoms: _51  and  _53
REMARK   14  A    between atoms: _53  and  _54
REMARK   15  A    between atoms: _53  and  _56
REMARK   16  A    between atoms: _56  and  _57
REMARK   17  A    between atoms: _60  and  _62
REMARK   18  A    between atoms: _62  and  _63
REMARK   19  A    between atoms: _62  and  _65
REMARK   20  A    between atoms: _65  and  _66
REMARK   21  A    between atoms: _69  and  _71
REMARK   22  A    between atoms: _71  and  _72
REMARK   23  A    between atoms: _71  and  _74
REMARK   24  A    between atoms: _74  and  _75
REMARK   25  A    between atoms: _75  and  _77
REMARK   26  A    between atoms: _77  and  MN_267
REMARK   27  A    between atoms: _78  and  _80
REMARK   28  A    between atoms: _80  and  _81
REMARK   29  A    between atoms: _80  and  _83
REMARK   30  A    between atoms: _83  and  _84
REMARK   31  A    between atoms: _86  and  _88
REMARK   32  A    between atoms: _88  and  _89
REMARK   33  A    between atoms: _88  and  _91
REMARK   34  A    between atoms: _91  and  _92
REMARK   35  A    between atoms: _95  and  _97
REMARK   36  A    between atoms: _97  and  _98
REMARK   37  A    between atoms: _100  and  _102
REMARK   38  A    between atoms: _102  and  _103
REMARK   39  A    between atoms: _102  and  _105
REMARK   40  A    between atoms: _105  and  _106
REMARK   41  A    between atoms: _109  and  _111
REMARK   42  A    between atoms: _111  and  _112
REMARK   43  A    between atoms: _111  and  _114
REMARK   44  A    between atoms: _114  and  _115
REMARK   45  A    between atoms: _120  and  _121
REMARK   46  A    between atoms: _123  and  _125
REMARK   47  A    between atoms: _125  and  _126
REMARK   48  A    between atoms: _125  and  _128
REMARK   49  A    between atoms: _128  and  _129
REMARK   50  A    between atoms: _129  and  _130
REMARK   51  A    between atoms: _130  and  _131
REMARK   52  A    between atoms: _131  and  _132
REMARK   53  A    between atoms: _136  and  _138
REMARK   54  A    between atoms: _138  and  _139
REMARK   55  A    between atoms: _138  and  _141
REMARK   56  A    between atoms: _141  and  _142
REMARK   57  A    between atoms: _142  and  _143
REMARK   58  A    between atoms: _146  and  _148
REMARK   59  A    between atoms: _148  and  _149
REMARK   60  A    between atoms: _151  and  _153
REMARK   61  A    between atoms: _153  and  _154
REMARK   62  A    between atoms: _153  and  _156
REMARK   63  A    between atoms: _156  and  _157
REMARK   64  A    between atoms: _159  and  _161
REMARK   65  A    between atoms: _161  and  _162
REMARK   66  A    between atoms: _161  and  _164
REMARK   67  A    between atoms: _164  and  _165
REMARK   68  A    between atoms: _167  and  _169
REMARK   69  A    between atoms: _169  and  _170
REMARK   70  A    between atoms: _169  and  _172
REMARK   71  A    between atoms: _172  and  _173
REMARK   72  A    between atoms: _179  and  _180
REMARK   73  A    between atoms: _185  and  _187
REMARK   74  A    between atoms: _187  and  _188
REMARK   75  A    between atoms: _191  and  _193
REMARK   76  A    between atoms: _193  and  _194
REMARK   77  A    between atoms: _193  and  _196
REMARK   78  A    between atoms: _196  and  _197
REMARK   79  A    between atoms: _200  and  _202
REMARK   80  A    between atoms: _202  and  _203
REMARK   81  A    between atoms: _205  and  _207
REMARK   82  A    between atoms: _207  and  _208
REMARK   83  A    between atoms: _210  and  _212
REMARK   84  A    between atoms: _212  and  _213
REMARK   85  A    between atoms: _212  and  _215
REMARK   86  A    between atoms: _215  and  _216
REMARK   87  A    between atoms: _218  and  _220
REMARK   88  A    between atoms: _220  and  _221
REMARK   89  A    between atoms: _220  and  _223
REMARK   90  A    between atoms: _223  and  _224
REMARK   91  A    between atoms: _227  and  _229
REMARK   92  A    between atoms: _229  and  _230
REMARK   93  A    between atoms: _232  and  _234
REMARK   94  A    between atoms: _234  and  _235
REMARK   95  A    between atoms: _234  and  _237
REMARK   96  A    between atoms: _237  and  _238
REMARK   97  A    between atoms: _238  and  _239
REMARK   98  A    between atoms: _239  and  _240
REMARK   99  A    between atoms: _249  and  _251
REMARK  100  A    between atoms: _251  and  _252
REMARK  101  A    between atoms: _251  and  _254
REMARK  102  A    between atoms: _254  and  _255
REMARK  103  A    between atoms: _258  and  _260
REMARK  104  A    between atoms: _260  and  _261
REMARK  105  A    between atoms: _260  and  _263
REMARK  106  A    between atoms: _263  and  _264
REMARK                            x       y       z     vdW  Elec       q    Type
REMARK                         _______ _______ _______ _____ _____    ______ ____
ROOT
ATOM      1  O   HOH     1     -18.839 -14.754 -42.705  0.00  0.00    +0.000 OA
ENDROOT
TORSDOF 0
REMARK  Name = ../refined-set-2016/4pf5/4pf5_pocket.pdb
REMARK  106 active torsions:
REMARK  status: ('A' for Active; 'I' for Inactive)
REMARK    1  A    between atoms: _1  and  _3
REMARK    2  A    between atoms: _12  and  _15
REMARK    3  A    between atoms: _15  and  _16
REMARK    4  A    between atoms: _21  and  _24
REMARK    5  A    between atoms: _22  and  _33
REMARK    6  A    between atoms: _24  and  _25
REMARK    7  A    between atoms: _30  and  _31
REMARK    8  A    between atoms: _34  and  _35
REMARK    9  A    between atoms: _40  and  _42
REMARK   10  A    between atoms: _42  and  _43
REMARK   11  A    between atoms: _42  and  _45
REMARK   12  A    between atoms: _45  and  _46
REMARK   13  A    between atoms: _51  and  _53
REMARK   14  A    between atoms: _53  and  _54
REMARK   15  A    between atoms: _53  and  _56
REMARK   16  A    between atoms: _56  and  _57
REMARK   17  A    between atoms: _60  and  _62
REMARK   18  A    between atoms: _62  and  _63
REMARK   19  A    between atoms: _62  and  _65
REMARK   20  A    between atoms: _65  and  _66
REMARK   21  A    between atoms: _69  and  _71
REMARK   22  A    between atoms: _71  and  _72
REMARK   23  A    between atoms: _71  and  _74
REMARK   24  A    between atoms: _74  and  _75
REMARK   25  A    between atoms: _75  and  _77
REMARK   26  A    between atoms: _77  and  MN_267
REMARK   27  A    between atoms: _78  and  _80
REMARK   28  A    between atoms: _80  and  _81
REMARK   29  A    between atoms: _80  and  _83
REMARK   30  A    between atoms: _83  and  _84
REMARK   31  A    between atoms: _86  and  _88
REMARK   32  A    between atoms: _88  and  _89
REMARK   33  A    between atoms: _88  and  _91
REMARK   34  A    between atoms: _91  and  _92
REMARK   35  A    between atoms: _95  and  _97
REMARK   36  A    between atoms: _97  and  _98
REMARK   37  A    between atoms: _100  and  _102
REMARK   38  A    between atoms: _102  and  _103
REMARK   39  A    between atoms: _102  and  _105
REMARK   40  A    between atoms: _105  and  _106
REMARK   41  A    between atoms: _109  and  _111
REMARK   42  A    between atoms: _111  and  _112
REMARK   43  A    between atoms: _111  and  _114
REMARK   44  A    between atoms: _114  and  _115
REMARK   45  A    between atoms: _120  and  _121
REMARK   46  A    between atoms: _123  and  _125
REMARK   47  A    between atoms: _125  and  _126
REMARK   48  A    between atoms: _125  and  _128
REMARK   49  A    between atoms: _128  and  _129
REMARK   50  A    between atoms: _129  and  _130
REMARK   51  A    between atoms: _130  and  _131
REMARK   52  A    between atoms: _131  and  _132
REMARK   53  A    between atoms: _136  and  _138
REMARK   54  A    between atoms: _138  and  _139
REMARK   55  A    between atoms: _138  and  _141
REMARK   56  A    between atoms: _141  and  _142
REMARK   57  A    between atoms: _142  and  _143
REMARK   58  A    between atoms: _146  and  _148
REMARK   59  A    between atoms: _148  and  _149
REMARK   60  A    between atoms: _151  and  _153
REMARK   61  A    between atoms: _153  and  _154
REMARK   62  A    between atoms: _153  and  _156
REMARK   63  A    between atoms: _156  and  _157
REMARK   64  A    between atoms: _159  and  _161
REMARK   65  A    between atoms: _161  and  _162
REMARK   66  A    between atoms: _161  and  _164
REMARK   67  A    between atoms: _164  and  _165
REMARK   68  A    between atoms: _167  and  _169
REMARK   69  A    between atoms: _169  and  _170
REMARK   70  A    between atoms: _169  and  _172
REMARK   71  A    between atoms: _172  and  _173
REMARK   72  A    between atoms: _179  and  _180
REMARK   73  A    between atoms: _185  and  _187
REMARK   74  A    between atoms: _187  and  _188
REMARK   75  A    between atoms: _191  and  _193
REMARK   76  A    between atoms: _193  and  _194
REMARK   77  A    between atoms: _193  and  _196
REMARK   78  A    between atoms: _196  and  _197
REMARK   79  A    between atoms: _200  and  _202
REMARK   80  A    between atoms: _202  and  _203
REMARK   81  A    between atoms: _205  and  _207
REMARK   82  A    between atoms: _207  and  _208
REMARK   83  A    between atoms: _210  and  _212
REMARK   84  A    between atoms: _212  and  _213
REMARK   85  A    between atoms: _212  and  _215
REMARK   86  A    between atoms: _215  and  _216
REMARK   87  A    between atoms: _218  and  _220
REMARK   88  A    between atoms: _220  and  _221
REMARK   89  A    between atoms: _220  and  _223
REMARK   90  A    between atoms: _223  and  _224
REMARK   91  A    between atoms: _227  and  _229
REMARK   92  A    between atoms: _229  and  _230
REMARK   93  A    between atoms: _232  and  _234
REMARK   94  A    between atoms: _234  and  _235
REMARK   95  A    between atoms: _234  and  _237
REMARK   96  A    between atoms: _237  and  _238
REMARK   97  A    between atoms: _238  and  _239
REMARK   98  A    between atoms: _239  and  _240
REMARK   99  A    between atoms: _249  and  _251
REMARK  100  A    between atoms: _251  and  _252
REMARK  101  A    between atoms: _251  and  _254
REMARK  102  A    between atoms: _254  and  _255
REMARK  103  A    between atoms: _258  and  _260
REMARK  104  A    between atoms: _260  and  _261
REMARK  105  A    between atoms: _260  and  _263
REMARK  106  A    between atoms: _263  and  _264
REMARK                            x       y       z     vdW  Elec       q    Type
REMARK                         _______ _______ _______ _____ _____    ______ ____
ROOT
ATOM      1  O   HOH     1     -22.038 -11.594 -34.147  0.00  0.00    +0.000 OA
ENDROOT
TORSDOF 0
REMARK  Name = ../refined-set-2016/4pf5/4pf5_pocket.pdb
REMARK  106 active torsions:
REMARK  status: ('A' for Active; 'I' for Inactive)
REMARK    1  A    between atoms: _1  and  _3
REMARK    2  A    between atoms: _12  and  _15
REMARK    3  A    between atoms: _15  and  _16
REMARK    4  A    between atoms: _21  and  _24
REMARK    5  A    between atoms: _22  and  _33
REMARK    6  A    between atoms: _24  and  _25
REMARK    7  A    between atoms: _30  and  _31
REMARK    8  A    between atoms: _34  and  _35
REMARK    9  A    between atoms: _40  and  _42
REMARK   10  A    between atoms: _42  and  _43
REMARK   11  A    between atoms: _42  and  _45
REMARK   12  A    between atoms: _45  and  _46
REMARK   13  A    between atoms: _51  and  _53
REMARK   14  A    between atoms: _53  and  _54
REMARK   15  A    between atoms: _53  and  _56
REMARK   16  A    between atoms: _56  and  _57
REMARK   17  A    between atoms: _60  and  _62
REMARK   18  A    between atoms: _62  and  _63
REMARK   19  A    between atoms: _62  and  _65
REMARK   20  A    between atoms: _65  and  _66
REMARK   21  A    between atoms: _69  and  _71
REMARK   22  A    between atoms: _71  and  _72
REMARK   23  A    between atoms: _71  and  _74
REMARK   24  A    between atoms: _74  and  _75
REMARK   25  A    between atoms: _75  and  _77
REMARK   26  A    between atoms: _77  and  MN_267
REMARK   27  A    between atoms: _78  and  _80
REMARK   28  A    between atoms: _80  and  _81
REMARK   29  A    between atoms: _80  and  _83
REMARK   30  A    between atoms: _83  and  _84
REMARK   31  A    between atoms: _86  and  _88
REMARK   32  A    between atoms: _88  and  _89
REMARK   33  A    between atoms: _88  and  _91
REMARK   34  A    between atoms: _91  and  _92
REMARK   35  A    between atoms: _95  and  _97
REMARK   36  A    between atoms: _97  and  _98
REMARK   37  A    between atoms: _100  and  _102
REMARK   38  A    between atoms: _102  and  _103
REMARK   39  A    between atoms: _102  and  _105
REMARK   40  A    between atoms: _105  and  _106
REMARK   41  A    between atoms: _109  and  _111
REMARK   42  A    between atoms: _111  and  _112
REMARK   43  A    between atoms: _111  and  _114
REMARK   44  A    between atoms: _114  and  _115
REMARK   45  A    between atoms: _120  and  _121
REMARK   46  A    between atoms: _123  and  _125
REMARK   47  A    between atoms: _125  and  _126
REMARK   48  A    between atoms: _125  and  _128
REMARK   49  A    between atoms: _128  and  _129
REMARK   50  A    between atoms: _129  and  _130
REMARK   51  A    between atoms: _130  and  _131
REMARK   52  A    between atoms: _131  and  _132
REMARK   53  A    between atoms: _136  and  _138
REMARK   54  A    between atoms: _138  and  _139
REMARK   55  A    between atoms: _138  and  _141
REMARK   56  A    between atoms: _141  and  _142
REMARK   57  A    between atoms: _142  and  _143
REMARK   58  A    between atoms: _146  and  _148
REMARK   59  A    between atoms: _148  and  _149
REMARK   60  A    between atoms: _151  and  _153
REMARK   61  A    between atoms: _153  and  _154
REMARK   62  A    between atoms: _153  and  _156
REMARK   63  A    between atoms: _156  and  _157
REMARK   64  A    between atoms: _159  and  _161
REMARK   65  A    between atoms: _161  and  _162
REMARK   66  A    between atoms: _161  and  _164
REMARK   67  A    between atoms: _164  and  _165
REMARK   68  A    between atoms: _167  and  _169
REMARK   69  A    between atoms: _169  and  _170
REMARK   70  A    between atoms: _169  and  _172
REMARK   71  A    between atoms: _172  and  _173
REMARK   72  A    between atoms: _179  and  _180
REMARK   73  A    between atoms: _185  and  _187
REMARK   74  A    between atoms: _187  and  _188
REMARK   75  A    between atoms: _191  and  _193
REMARK   76  A    between atoms: _193  and  _194
REMARK   77  A    between atoms: _193  and  _196
REMARK   78  A    between atoms: _196  and  _197
REMARK   79  A    between atoms: _200  and  _202
REMARK   80  A    between atoms: _202  and  _203
REMARK   81  A    between atoms: _205  and  _207
REMARK   82  A    between atoms: _207  and  _208
REMARK   83  A    between atoms: _210  and  _212
REMARK   84  A    between atoms: _212  and  _213
REMARK   85  A    between atoms: _212  and  _215
REMARK   86  A    between atoms: _215  and  _216
REMARK   87  A    between atoms: _218  and  _220
REMARK   88  A    between atoms: _220  and  _221
REMARK   89  A    between atoms: _220  and  _223
REMARK   90  A    between atoms: _223  and  _224
REMARK   91  A    between atoms: _227  and  _229
REMARK   92  A    between atoms: _229  and  _230
REMARK   93  A    between atoms: _232  and  _234
REMARK   94  A    between atoms: _234  and  _235
REMARK   95  A    between atoms: _234  and  _237
REMARK   96  A    between atoms: _237  and  _238
REMARK   97  A    between atoms: _238  and  _239
REMARK   98  A    between atoms: _239  and  _240
REMARK   99  A    between atoms: _249  and  _251
REMARK  100  A    between atoms: _251  and  _252
REMARK  101  A    between atoms: _251  and  _254
REMARK  102  A    between atoms: _254  and  _255
REMARK  103  A    between atoms: _258  and  _260
REMARK  104  A    between atoms: _260  and  _261
REMARK  105  A    between atoms: _260  and  _263
REMARK  106  A    between atoms: _263  and  _264
REMARK                            x       y       z     vdW  Elec       q    Type
REMARK                         _______ _______ _______ _____ _____    ______ ____
ROOT
ATOM      1  O   HOH     1     -16.120 -16.497 -28.822  0.00  0.00    +0.000 OA
ENDROOT
TORSDOF 0
