REMARK  Name = ../refined-set-2016/3v2p/3v2p_pocket.pdb
REMARK  296 active torsions:
REMARK  status: ('A' for Active; 'I' for Inactive)
REMARK    1  A    between atoms: _1  and  _3
REMARK    2  A    between atoms: _3  and  _4
REMARK    3  A    between atoms: _3  and  _6
REMARK    4  A    between atoms: _6  and  _7
REMARK    5  A    between atoms: _7  and  _8
REMARK    6  A    between atoms: _10  and  _12
REMARK    7  A    between atoms: _12  and  _13
REMARK    8  A    between atoms: _12  and  _15
REMARK    9  A    between atoms: _15  and  _16
REMARK   10  A    between atoms: _16  and  _17
REMARK   11  A    between atoms: _20  and  _22
REMARK   12  A    between atoms: _22  and  _23
REMARK   13  A    between atoms: _22  and  _25
REMARK   14  A    between atoms: _25  and  _26
REMARK   15  A    between atoms: _29  and  _31
REMARK   16  A    between atoms: _31  and  _32
REMARK   17  A    between atoms: _31  and  _34
REMARK   18  A    between atoms: _34  and  _35
REMARK   19  A    between atoms: _38  and  _40
REMARK   20  A    between atoms: _40  and  _41
REMARK   21  A    between atoms: _40  and  _43
REMARK   22  A    between atoms: _43  and  _44
REMARK   23  A    between atoms: _49  and  _51
REMARK   24  A    between atoms: _51  and  _52
REMARK   25  A    between atoms: _55  and  _57
REMARK   26  A    between atoms: _57  and  _58
REMARK   27  A    between atoms: _57  and  _60
REMARK   28  A    between atoms: _60  and  _61
REMARK   29  A    between atoms: _64  and  _66
REMARK   30  A    between atoms: _66  and  _67
REMARK   31  A    between atoms: _66  and  _69
REMARK   32  A    between atoms: _72  and  _74
REMARK   33  A    between atoms: _74  and  _75
REMARK   34  A    between atoms: _74  and  _77
REMARK   35  A    between atoms: _77  and  _78
REMARK   36  A    between atoms: _78  and  _79
REMARK   37  A    between atoms: _79  and  _80
REMARK   38  A    between atoms: _89  and  _91
REMARK   39  A    between atoms: _91  and  _92
REMARK   40  A    between atoms: _91  and  _94
REMARK   41  A    between atoms: _94  and  _95
REMARK   42  A    between atoms: _98  and  _100
REMARK   43  A    between atoms: _100  and  _101
REMARK   44  A    between atoms: _100  and  _103
REMARK   45  A    between atoms: _103  and  _104
REMARK   46  A    between atoms: _107  and  _109
REMARK   47  A    between atoms: _109  and  _110
REMARK   48  A    between atoms: _109  and  _112
REMARK   49  A    between atoms: _112  and  _113
REMARK   50  A    between atoms: _113  and  _114
REMARK   51  A    between atoms: _119  and  _121
REMARK   52  A    between atoms: _121  and  _122
REMARK   53  A    between atoms: _121  and  _124
REMARK   54  A    between atoms: _127  and  _129
REMARK   55  A    between atoms: _129  and  _130
REMARK   56  A    between atoms: _129  and  _132
REMARK   57  A    between atoms: _132  and  _133
REMARK   58  A    between atoms: _136  and  _138
REMARK   59  A    between atoms: _138  and  _139
REMARK   60  A    between atoms: _138  and  _141
REMARK   61  A    between atoms: _141  and  _142
REMARK   62  A    between atoms: _142  and  _143
REMARK   63  A    between atoms: _145  and  _147
REMARK   64  A    between atoms: _147  and  _148
REMARK   65  A    between atoms: _147  and  _150
REMARK   66  A    between atoms: _150  and  _151
REMARK   67  A    between atoms: _151  and  _152
REMARK   68  A    between atoms: _155  and  _157
REMARK   69  A    between atoms: _157  and  _158
REMARK   70  A    between atoms: _157  and  _160
REMARK   71  A    between atoms: _160  and  _161
REMARK   72  A    between atoms: _164  and  _166
REMARK   73  A    between atoms: _166  and  _167
REMARK   74  A    between atoms: _166  and  _169
REMARK   75  A    between atoms: _169  and  _170
REMARK   76  A    between atoms: _173  and  _175
REMARK   77  A    between atoms: _175  and  _176
REMARK   78  A    between atoms: _175  and  _178
REMARK   79  A    between atoms: _178  and  _179
REMARK   80  A    between atoms: _184  and  _186
REMARK   81  A    between atoms: _186  and  _187
REMARK   82  A    between atoms: _190  and  _192
REMARK   83  A    between atoms: _192  and  _193
REMARK   84  A    between atoms: _192  and  _195
REMARK   85  A    between atoms: _195  and  _196
REMARK   86  A    between atoms: _199  and  _201
REMARK   87  A    between atoms: _201  and  _202
REMARK   88  A    between atoms: _201  and  _204
REMARK   89  A    between atoms: _207  and  _209
REMARK   90  A    between atoms: _209  and  _210
REMARK   91  A    between atoms: _209  and  _212
REMARK   92  A    between atoms: _212  and  _213
REMARK   93  A    between atoms: _213  and  _214
REMARK   94  A    between atoms: _214  and  _215
REMARK   95  A    between atoms: _224  and  _226
REMARK   96  A    between atoms: _226  and  _227
REMARK   97  A    between atoms: _226  and  _229
REMARK   98  A    between atoms: _229  and  _230
REMARK   99  A    between atoms: _233  and  _235
REMARK  100  A    between atoms: _235  and  _236
REMARK  101  A    between atoms: _235  and  _238
REMARK  102  A    between atoms: _238  and  _239
REMARK  103  A    between atoms: _242  and  _244
REMARK  104  A    between atoms: _244  and  _245
REMARK  105  A    between atoms: _244  and  _247
REMARK  106  A    between atoms: _247  and  _248
REMARK  107  A    between atoms: _248  and  _249
REMARK  108  A    between atoms: _254  and  _256
REMARK  109  A    between atoms: _256  and  _257
REMARK  110  A    between atoms: _256  and  _259
REMARK  111  A    between atoms: _262  and  _264
REMARK  112  A    between atoms: _264  and  _265
REMARK  113  A    between atoms: _264  and  _267
REMARK  114  A    between atoms: _267  and  _268
REMARK  115  A    between atoms: _271  and  _273
REMARK  116  A    between atoms: _273  and  _274
REMARK  117  A    between atoms: _273  and  _276
REMARK  118  A    between atoms: _276  and  _277
REMARK  119  A    between atoms: _277  and  _278
REMARK  120  A    between atoms: _280  and  _282
REMARK  121  A    between atoms: _282  and  _283
REMARK  122  A    between atoms: _282  and  _285
REMARK  123  A    between atoms: _285  and  _286
REMARK  124  A    between atoms: _286  and  _287
REMARK  125  A    between atoms: _290  and  _292
REMARK  126  A    between atoms: _292  and  _293
REMARK  127  A    between atoms: _292  and  _295
REMARK  128  A    between atoms: _295  and  _296
REMARK  129  A    between atoms: _299  and  _301
REMARK  130  A    between atoms: _301  and  _302
REMARK  131  A    between atoms: _301  and  _304
REMARK  132  A    between atoms: _304  and  _305
REMARK  133  A    between atoms: _308  and  _310
REMARK  134  A    between atoms: _310  and  _311
REMARK  135  A    between atoms: _310  and  _313
REMARK  136  A    between atoms: _313  and  _314
REMARK  137  A    between atoms: _319  and  _321
REMARK  138  A    between atoms: _321  and  _322
REMARK  139  A    between atoms: _325  and  _327
REMARK  140  A    between atoms: _327  and  _328
REMARK  141  A    between atoms: _327  and  _330
REMARK  142  A    between atoms: _330  and  _331
REMARK  143  A    between atoms: _334  and  _336
REMARK  144  A    between atoms: _336  and  _337
REMARK  145  A    between atoms: _336  and  _339
REMARK  146  A    between atoms: _342  and  _344
REMARK  147  A    between atoms: _344  and  _345
REMARK  148  A    between atoms: _344  and  _347
REMARK  149  A    between atoms: _347  and  _348
REMARK  150  A    between atoms: _348  and  _349
REMARK  151  A    between atoms: _349  and  _350
REMARK  152  A    between atoms: _359  and  _361
REMARK  153  A    between atoms: _361  and  _362
REMARK  154  A    between atoms: _361  and  _364
REMARK  155  A    between atoms: _364  and  _365
REMARK  156  A    between atoms: _368  and  _370
REMARK  157  A    between atoms: _370  and  _371
REMARK  158  A    between atoms: _370  and  _373
REMARK  159  A    between atoms: _373  and  _374
REMARK  160  A    between atoms: _377  and  _379
REMARK  161  A    between atoms: _379  and  _380
REMARK  162  A    between atoms: _379  and  _382
REMARK  163  A    between atoms: _382  and  _383
REMARK  164  A    between atoms: _383  and  _384
REMARK  165  A    between atoms: _389  and  _391
REMARK  166  A    between atoms: _391  and  _392
REMARK  167  A    between atoms: _391  and  _394
REMARK  168  A    between atoms: _397  and  _399
REMARK  169  A    between atoms: _399  and  _400
REMARK  170  A    between atoms: _399  and  _402
REMARK  171  A    between atoms: _402  and  _403
REMARK  172  A    between atoms: _406  and  _408
REMARK  173  A    between atoms: _408  and  _409
REMARK  174  A    between atoms: _408  and  _411
REMARK  175  A    between atoms: _411  and  _412
REMARK  176  A    between atoms: _412  and  _413
REMARK  177  A    between atoms: _415  and  _417
REMARK  178  A    between atoms: _417  and  _418
REMARK  179  A    between atoms: _417  and  _420
REMARK  180  A    between atoms: _420  and  _421
REMARK  181  A    between atoms: _421  and  _422
REMARK  182  A    between atoms: _425  and  _427
REMARK  183  A    between atoms: _427  and  _428
REMARK  184  A    between atoms: _427  and  _430
REMARK  185  A    between atoms: _430  and  _431
REMARK  186  A    between atoms: _434  and  _436
REMARK  187  A    between atoms: _436  and  _437
REMARK  188  A    between atoms: _436  and  _439
REMARK  189  A    between atoms: _439  and  _440
REMARK  190  A    between atoms: _443  and  _445
REMARK  191  A    between atoms: _445  and  _446
REMARK  192  A    between atoms: _445  and  _448
REMARK  193  A    between atoms: _448  and  _449
REMARK  194  A    between atoms: _454  and  _456
REMARK  195  A    between atoms: _456  and  _457
REMARK  196  A    between atoms: _460  and  _462
REMARK  197  A    between atoms: _462  and  _463
REMARK  198  A    between atoms: _462  and  _465
REMARK  199  A    between atoms: _465  and  _466
REMARK  200  A    between atoms: _469  and  _471
REMARK  201  A    between atoms: _471  and  _472
REMARK  202  A    between atoms: _471  and  _474
REMARK  203  A    between atoms: _477  and  _479
REMARK  204  A    between atoms: _479  and  _480
REMARK  205  A    between atoms: _479  and  _482
REMARK  206  A    between atoms: _482  and  _483
REMARK  207  A    between atoms: _483  and  _484
REMARK  208  A    between atoms: _484  and  _485
REMARK  209  A    between atoms: _494  and  _496
REMARK  210  A    between atoms: _496  and  _497
REMARK  211  A    between atoms: _496  and  _499
REMARK  212  A    between atoms: _499  and  _500
REMARK  213  A    between atoms: _503  and  _505
REMARK  214  A    between atoms: _505  and  _506
REMARK  215  A    between atoms: _505  and  _508
REMARK  216  A    between atoms: _508  and  _509
REMARK  217  A    between atoms: _512  and  _514
REMARK  218  A    between atoms: _514  and  _515
REMARK  219  A    between atoms: _514  and  _517
REMARK  220  A    between atoms: _517  and  _518
REMARK  221  A    between atoms: _518  and  _519
REMARK  222  A    between atoms: _524  and  _526
REMARK  223  A    between atoms: _526  and  _527
REMARK  224  A    between atoms: _526  and  _529
REMARK  225  A    between atoms: _532  and  _534
REMARK  226  A    between atoms: _534  and  _535
REMARK  227  A    between atoms: _534  and  _537
REMARK  228  A    between atoms: _537  and  _538
REMARK  229  A    between atoms: _541  and  _543
REMARK  230  A    between atoms: _543  and  _544
REMARK  231  A    between atoms: _543  and  _546
REMARK  232  A    between atoms: _546  and  _547
REMARK  233  A    between atoms: _547  and  _548
REMARK  234  A    between atoms: _550  and  _552
REMARK  235  A    between atoms: _552  and  _553
REMARK  236  A    between atoms: _552  and  _555
REMARK  237  A    between atoms: _555  and  _556
REMARK  238  A    between atoms: _556  and  _557
REMARK  239  A    between atoms: _560  and  _562
REMARK  240  A    between atoms: _562  and  _563
REMARK  241  A    between atoms: _562  and  _565
REMARK  242  A    between atoms: _565  and  _566
REMARK  243  A    between atoms: _569  and  _571
REMARK  244  A    between atoms: _571  and  _572
REMARK  245  A    between atoms: _571  and  _574
REMARK  246  A    between atoms: _574  and  _575
REMARK  247  A    between atoms: _575  and  _576
REMARK  248  A    between atoms: _581  and  _583
REMARK  249  A    between atoms: _583  and  _584
REMARK  250  A    between atoms: _583  and  _586
REMARK  251  A    between atoms: _586  and  _587
REMARK  252  A    between atoms: _590  and  _592
REMARK  253  A    between atoms: _592  and  _593
REMARK  254  A    between atoms: _592  and  _595
REMARK  255  A    between atoms: _595  and  _596
REMARK  256  A    between atoms: _601  and  _603
REMARK  257  A    between atoms: _603  and  _604
REMARK  258  A    between atoms: _607  and  _609
REMARK  259  A    between atoms: _609  and  _610
REMARK  260  A    between atoms: _609  and  _612
REMARK  261  A    between atoms: _612  and  _613
REMARK  262  A    between atoms: _616  and  _618
REMARK  263  A    between atoms: _618  and  _619
REMARK  264  A    between atoms: _618  and  _621
REMARK  265  A    between atoms: _624  and  _626
REMARK  266  A    between atoms: _626  and  _627
REMARK  267  A    between atoms: _626  and  _629
REMARK  268  A    between atoms: _629  and  _630
REMARK  269  A    between atoms: _630  and  _631
REMARK  270  A    between atoms: _631  and  _632
REMARK  271  A    between atoms: _641  and  _643
REMARK  272  A    between atoms: _643  and  _644
REMARK  273  A    between atoms: _643  and  _646
REMARK  274  A    between atoms: _646  and  _647
REMARK  275  A    between atoms: _650  and  _652
REMARK  276  A    between atoms: _652  and  _653
REMARK  277  A    between atoms: _652  and  _655
REMARK  278  A    between atoms: _655  and  _656
REMARK  279  A    between atoms: _659  and  _661
REMARK  280  A    between atoms: _661  and  _662
REMARK  281  A    between atoms: _661  and  _664
REMARK  282  A    between atoms: _664  and  _665
REMARK  283  A    between atoms: _665  and  _666
REMARK  284  A    between atoms: _666  and  _667
REMARK  285  A    between atoms: _676  and  _678
REMARK  286  A    between atoms: _678  and  _679
REMARK  287  A    between atoms: _678  and  _681
REMARK  288  A    between atoms: _681  and  _682
REMARK  289  A    between atoms: _682  and  _683
REMARK  290  A    between atoms: _688  and  _690
REMARK  291  A    between atoms: _690  and  _691
REMARK  292  A    between atoms: _690  and  _693
REMARK  293  A    between atoms: _696  and  _698
REMARK  294  A    between atoms: _698  and  _699
REMARK  295  A    between atoms: _698  and  _701
REMARK  296  A    between atoms: _701  and  _702
REMARK                            x       y       z     vdW  Elec       q    Type
REMARK                         _______ _______ _______ _____ _____    ______ ____
ROOT
ATOM      1  CA  MET A   1      19.003   7.849  -6.727  0.00  0.00    +0.134 C 
ENDROOT
BRANCH   1   2
ATOM      2  N   MET A   1      19.713   9.093  -6.986  0.00  0.00    -0.239 NA
ATOM      3  H   MET A   1      20.382   9.151  -7.780  0.00  0.00    +0.142 HD
ENDBRANCH   1   2
BRANCH   1   4
ATOM      4  C   MET A   1      19.451   7.302  -5.377  0.00  0.00    +0.224 C 
ATOM      5  O   MET A   1      18.628   6.850  -4.583  0.00  0.00    -0.287 OA
ENDBRANCH   1   4
BRANCH   1   6
ATOM      6  CB  MET A   1      19.281   6.817  -7.827  0.00  0.00    +0.037 C 
BRANCH   6   7
ATOM      7  CG  MET A   1      18.530   7.098  -9.126  0.00  0.00    +0.059 C 
BRANCH   7   8
ATOM      8  SD  MET A   1      18.821   5.856 -10.398  0.00  0.00    -0.139 S 
ATOM      9  CE  MET A   1      18.001   4.444  -9.668  0.00  0.00    +0.069 C 
ENDBRANCH   7   8
ENDBRANCH   6   7
ENDBRANCH   1   6
TORSDOF 5
REMARK  Name = ../refined-set-2016/3v2p/3v2p_pocket.pdb
REMARK  296 active torsions:
REMARK  status: ('A' for Active; 'I' for Inactive)
REMARK    1  A    between atoms: _1  and  _3
REMARK    2  A    between atoms: _3  and  _4
REMARK    3  A    between atoms: _3  and  _6
REMARK    4  A    between atoms: _6  and  _7
REMARK    5  A    between atoms: _7  and  _8
REMARK    6  A    between atoms: _10  and  _12
REMARK    7  A    between atoms: _12  and  _13
REMARK    8  A    between atoms: _12  and  _15
REMARK    9  A    between atoms: _15  and  _16
REMARK   10  A    between atoms: _16  and  _17
REMARK   11  A    between atoms: _20  and  _22
REMARK   12  A    between atoms: _22  and  _23
REMARK   13  A    between atoms: _22  and  _25
REMARK   14  A    between atoms: _25  and  _26
REMARK   15  A    between atoms: _29  and  _31
REMARK   16  A    between atoms: _31  and  _32
REMARK   17  A    between atoms: _31  and  _34
REMARK   18  A    between atoms: _34  and  _35
REMARK   19  A    between atoms: _38  and  _40
REMARK   20  A    between atoms: _40  and  _41
REMARK   21  A    between atoms: _40  and  _43
REMARK   22  A    between atoms: _43  and  _44
REMARK   23  A    between atoms: _49  and  _51
REMARK   24  A    between atoms: _51  and  _52
REMARK   25  A    between atoms: _55  and  _57
REMARK   26  A    between atoms: _57  and  _58
REMARK   27  A    between atoms: _57  and  _60
REMARK   28  A    between atoms: _60  and  _61
REMARK   29  A    between atoms: _64  and  _66
REMARK   30  A    between atoms: _66  and  _67
REMARK   31  A    between atoms: _66  and  _69
REMARK   32  A    between atoms: _72  and  _74
REMARK   33  A    between atoms: _74  and  _75
REMARK   34  A    between atoms: _74  and  _77
REMARK   35  A    between atoms: _77  and  _78
REMARK   36  A    between atoms: _78  and  _79
REMARK   37  A    between atoms: _79  and  _80
REMARK   38  A    between atoms: _89  and  _91
REMARK   39  A    between atoms: _91  and  _92
REMARK   40  A    between atoms: _91  and  _94
REMARK   41  A    between atoms: _94  and  _95
REMARK   42  A    between atoms: _98  and  _100
REMARK   43  A    between atoms: _100  and  _101
REMARK   44  A    between atoms: _100  and  _103
REMARK   45  A    between atoms: _103  and  _104
REMARK   46  A    between atoms: _107  and  _109
REMARK   47  A    between atoms: _109  and  _110
REMARK   48  A    between atoms: _109  and  _112
REMARK   49  A    between atoms: _112  and  _113
REMARK   50  A    between atoms: _113  and  _114
REMARK   51  A    between atoms: _119  and  _121
REMARK   52  A    between atoms: _121  and  _122
REMARK   53  A    between atoms: _121  and  _124
REMARK   54  A    between atoms: _127  and  _129
REMARK   55  A    between atoms: _129  and  _130
REMARK   56  A    between atoms: _129  and  _132
REMARK   57  A    between atoms: _132  and  _133
REMARK   58  A    between atoms: _136  and  _138
REMARK   59  A    between atoms: _138  and  _139
REMARK   60  A    between atoms: _138  and  _141
REMARK   61  A    between atoms: _141  and  _142
REMARK   62  A    between atoms: _142  and  _143
REMARK   63  A    between atoms: _145  and  _147
REMARK   64  A    between atoms: _147  and  _148
REMARK   65  A    between atoms: _147  and  _150
REMARK   66  A    between atoms: _150  and  _151
REMARK   67  A    between atoms: _151  and  _152
REMARK   68  A    between atoms: _155  and  _157
REMARK   69  A    between atoms: _157  and  _158
REMARK   70  A    between atoms: _157  and  _160
REMARK   71  A    between atoms: _160  and  _161
REMARK   72  A    between atoms: _164  and  _166
REMARK   73  A    between atoms: _166  and  _167
REMARK   74  A    between atoms: _166  and  _169
REMARK   75  A    between atoms: _169  and  _170
REMARK   76  A    between atoms: _173  and  _175
REMARK   77  A    between atoms: _175  and  _176
REMARK   78  A    between atoms: _175  and  _178
REMARK   79  A    between atoms: _178  and  _179
REMARK   80  A    between atoms: _184  and  _186
REMARK   81  A    between atoms: _186  and  _187
REMARK   82  A    between atoms: _190  and  _192
REMARK   83  A    between atoms: _192  and  _193
REMARK   84  A    between atoms: _192  and  _195
REMARK   85  A    between atoms: _195  and  _196
REMARK   86  A    between atoms: _199  and  _201
REMARK   87  A    between atoms: _201  and  _202
REMARK   88  A    between atoms: _201  and  _204
REMARK   89  A    between atoms: _207  and  _209
REMARK   90  A    between atoms: _209  and  _210
REMARK   91  A    between atoms: _209  and  _212
REMARK   92  A    between atoms: _212  and  _213
REMARK   93  A    between atoms: _213  and  _214
REMARK   94  A    between atoms: _214  and  _215
REMARK   95  A    between atoms: _224  and  _226
REMARK   96  A    between atoms: _226  and  _227
REMARK   97  A    between atoms: _226  and  _229
REMARK   98  A    between atoms: _229  and  _230
REMARK   99  A    between atoms: _233  and  _235
REMARK  100  A    between atoms: _235  and  _236
REMARK  101  A    between atoms: _235  and  _238
REMARK  102  A    between atoms: _238  and  _239
REMARK  103  A    between atoms: _242  and  _244
REMARK  104  A    between atoms: _244  and  _245
REMARK  105  A    between atoms: _244  and  _247
REMARK  106  A    between atoms: _247  and  _248
REMARK  107  A    between atoms: _248  and  _249
REMARK  108  A    between atoms: _254  and  _256
REMARK  109  A    between atoms: _256  and  _257
REMARK  110  A    between atoms: _256  and  _259
REMARK  111  A    between atoms: _262  and  _264
REMARK  112  A    between atoms: _264  and  _265
REMARK  113  A    between atoms: _264  and  _267
REMARK  114  A    between atoms: _267  and  _268
REMARK  115  A    between atoms: _271  and  _273
REMARK  116  A    between atoms: _273  and  _274
REMARK  117  A    between atoms: _273  and  _276
REMARK  118  A    between atoms: _276  and  _277
REMARK  119  A    between atoms: _277  and  _278
REMARK  120  A    between atoms: _280  and  _282
REMARK  121  A    between atoms: _282  and  _283
REMARK  122  A    between atoms: _282  and  _285
REMARK  123  A    between atoms: _285  and  _286
REMARK  124  A    between atoms: _286  and  _287
REMARK  125  A    between atoms: _290  and  _292
REMARK  126  A    between atoms: _292  and  _293
REMARK  127  A    between atoms: _292  and  _295
REMARK  128  A    between atoms: _295  and  _296
REMARK  129  A    between atoms: _299  and  _301
REMARK  130  A    between atoms: _301  and  _302
REMARK  131  A    between atoms: _301  and  _304
REMARK  132  A    between atoms: _304  and  _305
REMARK  133  A    between atoms: _308  and  _310
REMARK  134  A    between atoms: _310  and  _311
REMARK  135  A    between atoms: _310  and  _313
REMARK  136  A    between atoms: _313  and  _314
REMARK  137  A    between atoms: _319  and  _321
REMARK  138  A    between atoms: _321  and  _322
REMARK  139  A    between atoms: _325  and  _327
REMARK  140  A    between atoms: _327  and  _328
REMARK  141  A    between atoms: _327  and  _330
REMARK  142  A    between atoms: _330  and  _331
REMARK  143  A    between atoms: _334  and  _336
REMARK  144  A    between atoms: _336  and  _337
REMARK  145  A    between atoms: _336  and  _339
REMARK  146  A    between atoms: _342  and  _344
REMARK  147  A    between atoms: _344  and  _345
REMARK  148  A    between atoms: _344  and  _347
REMARK  149  A    between atoms: _347  and  _348
REMARK  150  A    between atoms: _348  and  _349
REMARK  151  A    between atoms: _349  and  _350
REMARK  152  A    between atoms: _359  and  _361
REMARK  153  A    between atoms: _361  and  _362
REMARK  154  A    between atoms: _361  and  _364
REMARK  155  A    between atoms: _364  and  _365
REMARK  156  A    between atoms: _368  and  _370
REMARK  157  A    between atoms: _370  and  _371
REMARK  158  A    between atoms: _370  and  _373
REMARK  159  A    between atoms: _373  and  _374
REMARK  160  A    between atoms: _377  and  _379
REMARK  161  A    between atoms: _379  and  _380
REMARK  162  A    between atoms: _379  and  _382
REMARK  163  A    between atoms: _382  and  _383
REMARK  164  A    between atoms: _383  and  _384
REMARK  165  A    between atoms: _389  and  _391
REMARK  166  A    between atoms: _391  and  _392
REMARK  167  A    between atoms: _391  and  _394
REMARK  168  A    between atoms: _397  and  _399
REMARK  169  A    between atoms: _399  and  _400
REMARK  170  A    between atoms: _399  and  _402
REMARK  171  A    between atoms: _402  and  _403
REMARK  172  A    between atoms: _406  and  _408
REMARK  173  A    between atoms: _408  and  _409
REMARK  174  A    between atoms: _408  and  _411
REMARK  175  A    between atoms: _411  and  _412
REMARK  176  A    between atoms: _412  and  _413
REMARK  177  A    between atoms: _415  and  _417
REMARK  178  A    between atoms: _417  and  _418
REMARK  179  A    between atoms: _417  and  _420
REMARK  180  A    between atoms: _420  and  _421
REMARK  181  A    between atoms: _421  and  _422
REMARK  182  A    between atoms: _425  and  _427
REMARK  183  A    between atoms: _427  and  _428
REMARK  184  A    between atoms: _427  and  _430
REMARK  185  A    between atoms: _430  and  _431
REMARK  186  A    between atoms: _434  and  _436
REMARK  187  A    between atoms: _436  and  _437
REMARK  188  A    between atoms: _436  and  _439
REMARK  189  A    between atoms: _439  and  _440
REMARK  190  A    between atoms: _443  and  _445
REMARK  191  A    between atoms: _445  and  _446
REMARK  192  A    between atoms: _445  and  _448
REMARK  193  A    between atoms: _448  and  _449
REMARK  194  A    between atoms: _454  and  _456
REMARK  195  A    between atoms: _456  and  _457
REMARK  196  A    between atoms: _460  and  _462
REMARK  197  A    between atoms: _462  and  _463
REMARK  198  A    between atoms: _462  and  _465
REMARK  199  A    between atoms: _465  and  _466
REMARK  200  A    between atoms: _469  and  _471
REMARK  201  A    between atoms: _471  and  _472
REMARK  202  A    between atoms: _471  and  _474
REMARK  203  A    between atoms: _477  and  _479
REMARK  204  A    between atoms: _479  and  _480
REMARK  205  A    between atoms: _479  and  _482
REMARK  206  A    between atoms: _482  and  _483
REMARK  207  A    between atoms: _483  and  _484
REMARK  208  A    between atoms: _484  and  _485
REMARK  209  A    between atoms: _494  and  _496
REMARK  210  A    between atoms: _496  and  _497
REMARK  211  A    between atoms: _496  and  _499
REMARK  212  A    between atoms: _499  and  _500
REMARK  213  A    between atoms: _503  and  _505
REMARK  214  A    between atoms: _505  and  _506
REMARK  215  A    between atoms: _505  and  _508
REMARK  216  A    between atoms: _508  and  _509
REMARK  217  A    between atoms: _512  and  _514
REMARK  218  A    between atoms: _514  and  _515
REMARK  219  A    between atoms: _514  and  _517
REMARK  220  A    between atoms: _517  and  _518
REMARK  221  A    between atoms: _518  and  _519
REMARK  222  A    between atoms: _524  and  _526
REMARK  223  A    between atoms: _526  and  _527
REMARK  224  A    between atoms: _526  and  _529
REMARK  225  A    between atoms: _532  and  _534
REMARK  226  A    between atoms: _534  and  _535
REMARK  227  A    between atoms: _534  and  _537
REMARK  228  A    between atoms: _537  and  _538
REMARK  229  A    between atoms: _541  and  _543
REMARK  230  A    between atoms: _543  and  _544
REMARK  231  A    between atoms: _543  and  _546
REMARK  232  A    between atoms: _546  and  _547
REMARK  233  A    between atoms: _547  and  _548
REMARK  234  A    between atoms: _550  and  _552
REMARK  235  A    between atoms: _552  and  _553
REMARK  236  A    between atoms: _552  and  _555
REMARK  237  A    between atoms: _555  and  _556
REMARK  238  A    between atoms: _556  and  _557
REMARK  239  A    between atoms: _560  and  _562
REMARK  240  A    between atoms: _562  and  _563
REMARK  241  A    between atoms: _562  and  _565
REMARK  242  A    between atoms: _565  and  _566
REMARK  243  A    between atoms: _569  and  _571
REMARK  244  A    between atoms: _571  and  _572
REMARK  245  A    between atoms: _571  and  _574
REMARK  246  A    between atoms: _574  and  _575
REMARK  247  A    between atoms: _575  and  _576
REMARK  248  A    between atoms: _581  and  _583
REMARK  249  A    between atoms: _583  and  _584
REMARK  250  A    between atoms: _583  and  _586
REMARK  251  A    between atoms: _586  and  _587
REMARK  252  A    between atoms: _590  and  _592
REMARK  253  A    between atoms: _592  and  _593
REMARK  254  A    between atoms: _592  and  _595
REMARK  255  A    between atoms: _595  and  _596
REMARK  256  A    between atoms: _601  and  _603
REMARK  257  A    between atoms: _603  and  _604
REMARK  258  A    between atoms: _607  and  _609
REMARK  259  A    between atoms: _609  and  _610
REMARK  260  A    between atoms: _609  and  _612
REMARK  261  A    between atoms: _612  and  _613
REMARK  262  A    between atoms: _616  and  _618
REMARK  263  A    between atoms: _618  and  _619
REMARK  264  A    between atoms: _618  and  _621
REMARK  265  A    between atoms: _624  and  _626
REMARK  266  A    between atoms: _626  and  _627
REMARK  267  A    between atoms: _626  and  _629
REMARK  268  A    between atoms: _629  and  _630
REMARK  269  A    between atoms: _630  and  _631
REMARK  270  A    between atoms: _631  and  _632
REMARK  271  A    between atoms: _641  and  _643
REMARK  272  A    between atoms: _643  and  _644
REMARK  273  A    between atoms: _643  and  _646
REMARK  274  A    between atoms: _646  and  _647
REMARK  275  A    between atoms: _650  and  _652
REMARK  276  A    between atoms: _652  and  _653
REMARK  277  A    between atoms: _652  and  _655
REMARK  278  A    between atoms: _655  and  _656
REMARK  279  A    between atoms: _659  and  _661
REMARK  280  A    between atoms: _661  and  _662
REMARK  281  A    between atoms: _661  and  _664
REMARK  282  A    between atoms: _664  and  _665
REMARK  283  A    between atoms: _665  and  _666
REMARK  284  A    between atoms: _666  and  _667
REMARK  285  A    between atoms: _676  and  _678
REMARK  286  A    between atoms: _678  and  _679
REMARK  287  A    between atoms: _678  and  _681
REMARK  288  A    between atoms: _681  and  _682
REMARK  289  A    between atoms: _682  and  _683
REMARK  290  A    between atoms: _688  and  _690
REMARK  291  A    between atoms: _690  and  _691
REMARK  292  A    between atoms: _690  and  _693
REMARK  293  A    between atoms: _696  and  _698
REMARK  294  A    between atoms: _698  and  _699
REMARK  295  A    between atoms: _698  and  _701
REMARK  296  A    between atoms: _701  and  _702
REMARK                            x       y       z     vdW  Elec       q    Type
REMARK                         _______ _______ _______ _____ _____    ______ ____
ROOT
ATOM      1  C   GLU A   1      16.315   7.576  -1.589  0.00  0.00    +0.238 C 
ATOM      2  O   GLU A   1      15.509   7.472  -0.672  0.00  0.00    -0.274 OA
ATOM      3  N   LEU A   2      17.162   6.604  -1.913  0.00  0.00    -0.298 N 
ATOM      4  H   LEU A   2      17.821   6.746  -2.705  0.00  0.00    +0.150 HD
ENDROOT
BRANCH   1   5
ATOM      5  CA  GLU A   1      16.390   8.859  -2.418  0.00  0.00    +0.145 C 
BRANCH   5   6
ATOM      6  N   GLU A   1      17.790   9.209  -2.648  0.00  0.00    -0.238 NA
ATOM      7  H   GLU A   1      18.174   9.222  -3.614  0.00  0.00    +0.142 HD
ENDBRANCH   5   6
BRANCH   5   8
ATOM      8  CB  GLU A   1      15.637   8.661  -3.741  0.00  0.00    +0.038 C 
BRANCH   8   9
ATOM      9  CG  GLU A   1      15.375   9.936  -4.549  0.00  0.00    +0.116 C 
BRANCH   9  10
ATOM     10  CD  GLU A   1      14.565  10.983  -3.786  0.00  0.00    +0.365 C 
ATOM     11  OE2 GLU A   1      13.584  10.621  -3.099  0.00  0.00    -0.246 OA
ATOM     12  OE1 GLU A   1      14.907  12.176  -3.886  0.00  0.00    -0.246 OA
ENDBRANCH   9  10
ENDBRANCH   8   9
ENDBRANCH   5   8
ENDBRANCH   1   5
BRANCH   3  13
ATOM     13  CA  LEU A   2      17.186   5.340  -1.180  0.00  0.00    +0.137 C 
BRANCH  13  14
ATOM     14  C   LEU A   2      17.578   5.568   0.281  0.00  0.00    +0.227 C 
ATOM     15  O   LEU A   2      17.036   4.934   1.185  0.00  0.00    -0.286 OA
ENDBRANCH  13  14
BRANCH  13  16
ATOM     16  CB  LEU A   2      18.180   4.372  -1.829  0.00  0.00    +0.028 C 
BRANCH  16  17
ATOM     17  CG  LEU A   2      17.826   3.841  -3.217  0.00  0.00    +0.002 C 
ATOM     18  CD2 LEU A   2      16.548   3.034  -3.120  0.00  0.00    +0.000 C 
ATOM     19  CD1 LEU A   2      18.977   2.984  -3.762  0.00  0.00    +0.000 C 
ENDBRANCH  16  17
ENDBRANCH  13  16
ENDBRANCH   3  13
TORSDOF 9
REMARK  Name = ../refined-set-2016/3v2p/3v2p_pocket.pdb
REMARK  296 active torsions:
REMARK  status: ('A' for Active; 'I' for Inactive)
REMARK    1  A    between atoms: _1  and  _3
REMARK    2  A    between atoms: _3  and  _4
REMARK    3  A    between atoms: _3  and  _6
REMARK    4  A    between atoms: _6  and  _7
REMARK    5  A    between atoms: _7  and  _8
REMARK    6  A    between atoms: _10  and  _12
REMARK    7  A    between atoms: _12  and  _13
REMARK    8  A    between atoms: _12  and  _15
REMARK    9  A    between atoms: _15  and  _16
REMARK   10  A    between atoms: _16  and  _17
REMARK   11  A    between atoms: _20  and  _22
REMARK   12  A    between atoms: _22  and  _23
REMARK   13  A    between atoms: _22  and  _25
REMARK   14  A    between atoms: _25  and  _26
REMARK   15  A    between atoms: _29  and  _31
REMARK   16  A    between atoms: _31  and  _32
REMARK   17  A    between atoms: _31  and  _34
REMARK   18  A    between atoms: _34  and  _35
REMARK   19  A    between atoms: _38  and  _40
REMARK   20  A    between atoms: _40  and  _41
REMARK   21  A    between atoms: _40  and  _43
REMARK   22  A    between atoms: _43  and  _44
REMARK   23  A    between atoms: _49  and  _51
REMARK   24  A    between atoms: _51  and  _52
REMARK   25  A    between atoms: _55  and  _57
REMARK   26  A    between atoms: _57  and  _58
REMARK   27  A    between atoms: _57  and  _60
REMARK   28  A    between atoms: _60  and  _61
REMARK   29  A    between atoms: _64  and  _66
REMARK   30  A    between atoms: _66  and  _67
REMARK   31  A    between atoms: _66  and  _69
REMARK   32  A    between atoms: _72  and  _74
REMARK   33  A    between atoms: _74  and  _75
REMARK   34  A    between atoms: _74  and  _77
REMARK   35  A    between atoms: _77  and  _78
REMARK   36  A    between atoms: _78  and  _79
REMARK   37  A    between atoms: _79  and  _80
REMARK   38  A    between atoms: _89  and  _91
REMARK   39  A    between atoms: _91  and  _92
REMARK   40  A    between atoms: _91  and  _94
REMARK   41  A    between atoms: _94  and  _95
REMARK   42  A    between atoms: _98  and  _100
REMARK   43  A    between atoms: _100  and  _101
REMARK   44  A    between atoms: _100  and  _103
REMARK   45  A    between atoms: _103  and  _104
REMARK   46  A    between atoms: _107  and  _109
REMARK   47  A    between atoms: _109  and  _110
REMARK   48  A    between atoms: _109  and  _112
REMARK   49  A    between atoms: _112  and  _113
REMARK   50  A    between atoms: _113  and  _114
REMARK   51  A    between atoms: _119  and  _121
REMARK   52  A    between atoms: _121  and  _122
REMARK   53  A    between atoms: _121  and  _124
REMARK   54  A    between atoms: _127  and  _129
REMARK   55  A    between atoms: _129  and  _130
REMARK   56  A    between atoms: _129  and  _132
REMARK   57  A    between atoms: _132  and  _133
REMARK   58  A    between atoms: _136  and  _138
REMARK   59  A    between atoms: _138  and  _139
REMARK   60  A    between atoms: _138  and  _141
REMARK   61  A    between atoms: _141  and  _142
REMARK   62  A    between atoms: _142  and  _143
REMARK   63  A    between atoms: _145  and  _147
REMARK   64  A    between atoms: _147  and  _148
REMARK   65  A    between atoms: _147  and  _150
REMARK   66  A    between atoms: _150  and  _151
REMARK   67  A    between atoms: _151  and  _152
REMARK   68  A    between atoms: _155  and  _157
REMARK   69  A    between atoms: _157  and  _158
REMARK   70  A    between atoms: _157  and  _160
REMARK   71  A    between atoms: _160  and  _161
REMARK   72  A    between atoms: _164  and  _166
REMARK   73  A    between atoms: _166  and  _167
REMARK   74  A    between atoms: _166  and  _169
REMARK   75  A    between atoms: _169  and  _170
REMARK   76  A    between atoms: _173  and  _175
REMARK   77  A    between atoms: _175  and  _176
REMARK   78  A    between atoms: _175  and  _178
REMARK   79  A    between atoms: _178  and  _179
REMARK   80  A    between atoms: _184  and  _186
REMARK   81  A    between atoms: _186  and  _187
REMARK   82  A    between atoms: _190  and  _192
REMARK   83  A    between atoms: _192  and  _193
REMARK   84  A    between atoms: _192  and  _195
REMARK   85  A    between atoms: _195  and  _196
REMARK   86  A    between atoms: _199  and  _201
REMARK   87  A    between atoms: _201  and  _202
REMARK   88  A    between atoms: _201  and  _204
REMARK   89  A    between atoms: _207  and  _209
REMARK   90  A    between atoms: _209  and  _210
REMARK   91  A    between atoms: _209  and  _212
REMARK   92  A    between atoms: _212  and  _213
REMARK   93  A    between atoms: _213  and  _214
REMARK   94  A    between atoms: _214  and  _215
REMARK   95  A    between atoms: _224  and  _226
REMARK   96  A    between atoms: _226  and  _227
REMARK   97  A    between atoms: _226  and  _229
REMARK   98  A    between atoms: _229  and  _230
REMARK   99  A    between atoms: _233  and  _235
REMARK  100  A    between atoms: _235  and  _236
REMARK  101  A    between atoms: _235  and  _238
REMARK  102  A    between atoms: _238  and  _239
REMARK  103  A    between atoms: _242  and  _244
REMARK  104  A    between atoms: _244  and  _245
REMARK  105  A    between atoms: _244  and  _247
REMARK  106  A    between atoms: _247  and  _248
REMARK  107  A    between atoms: _248  and  _249
REMARK  108  A    between atoms: _254  and  _256
REMARK  109  A    between atoms: _256  and  _257
REMARK  110  A    between atoms: _256  and  _259
REMARK  111  A    between atoms: _262  and  _264
REMARK  112  A    between atoms: _264  and  _265
REMARK  113  A    between atoms: _264  and  _267
REMARK  114  A    between atoms: _267  and  _268
REMARK  115  A    between atoms: _271  and  _273
REMARK  116  A    between atoms: _273  and  _274
REMARK  117  A    between atoms: _273  and  _276
REMARK  118  A    between atoms: _276  and  _277
REMARK  119  A    between atoms: _277  and  _278
REMARK  120  A    between atoms: _280  and  _282
REMARK  121  A    between atoms: _282  and  _283
REMARK  122  A    between atoms: _282  and  _285
REMARK  123  A    between atoms: _285  and  _286
REMARK  124  A    between atoms: _286  and  _287
REMARK  125  A    between atoms: _290  and  _292
REMARK  126  A    between atoms: _292  and  _293
REMARK  127  A    between atoms: _292  and  _295
REMARK  128  A    between atoms: _295  and  _296
REMARK  129  A    between atoms: _299  and  _301
REMARK  130  A    between atoms: _301  and  _302
REMARK  131  A    between atoms: _301  and  _304
REMARK  132  A    between atoms: _304  and  _305
REMARK  133  A    between atoms: _308  and  _310
REMARK  134  A    between atoms: _310  and  _311
REMARK  135  A    between atoms: _310  and  _313
REMARK  136  A    between atoms: _313  and  _314
REMARK  137  A    between atoms: _319  and  _321
REMARK  138  A    between atoms: _321  and  _322
REMARK  139  A    between atoms: _325  and  _327
REMARK  140  A    between atoms: _327  and  _328
REMARK  141  A    between atoms: _327  and  _330
REMARK  142  A    between atoms: _330  and  _331
REMARK  143  A    between atoms: _334  and  _336
REMARK  144  A    between atoms: _336  and  _337
REMARK  145  A    between atoms: _336  and  _339
REMARK  146  A    between atoms: _342  and  _344
REMARK  147  A    between atoms: _344  and  _345
REMARK  148  A    between atoms: _344  and  _347
REMARK  149  A    between atoms: _347  and  _348
REMARK  150  A    between atoms: _348  and  _349
REMARK  151  A    between atoms: _349  and  _350
REMARK  152  A    between atoms: _359  and  _361
REMARK  153  A    between atoms: _361  and  _362
REMARK  154  A    between atoms: _361  and  _364
REMARK  155  A    between atoms: _364  and  _365
REMARK  156  A    between atoms: _368  and  _370
REMARK  157  A    between atoms: _370  and  _371
REMARK  158  A    between atoms: _370  and  _373
REMARK  159  A    between atoms: _373  and  _374
REMARK  160  A    between atoms: _377  and  _379
REMARK  161  A    between atoms: _379  and  _380
REMARK  162  A    between atoms: _379  and  _382
REMARK  163  A    between atoms: _382  and  _383
REMARK  164  A    between atoms: _383  and  _384
REMARK  165  A    between atoms: _389  and  _391
REMARK  166  A    between atoms: _391  and  _392
REMARK  167  A    between atoms: _391  and  _394
REMARK  168  A    between atoms: _397  and  _399
REMARK  169  A    between atoms: _399  and  _400
REMARK  170  A    between atoms: _399  and  _402
REMARK  171  A    between atoms: _402  and  _403
REMARK  172  A    between atoms: _406  and  _408
REMARK  173  A    between atoms: _408  and  _409
REMARK  174  A    between atoms: _408  and  _411
REMARK  175  A    between atoms: _411  and  _412
REMARK  176  A    between atoms: _412  and  _413
REMARK  177  A    between atoms: _415  and  _417
REMARK  178  A    between atoms: _417  and  _418
REMARK  179  A    between atoms: _417  and  _420
REMARK  180  A    between atoms: _420  and  _421
REMARK  181  A    between atoms: _421  and  _422
REMARK  182  A    between atoms: _425  and  _427
REMARK  183  A    between atoms: _427  and  _428
REMARK  184  A    between atoms: _427  and  _430
REMARK  185  A    between atoms: _430  and  _431
REMARK  186  A    between atoms: _434  and  _436
REMARK  187  A    between atoms: _436  and  _437
REMARK  188  A    between atoms: _436  and  _439
REMARK  189  A    between atoms: _439  and  _440
REMARK  190  A    between atoms: _443  and  _445
REMARK  191  A    between atoms: _445  and  _446
REMARK  192  A    between atoms: _445  and  _448
REMARK  193  A    between atoms: _448  and  _449
REMARK  194  A    between atoms: _454  and  _456
REMARK  195  A    between atoms: _456  and  _457
REMARK  196  A    between atoms: _460  and  _462
REMARK  197  A    between atoms: _462  and  _463
REMARK  198  A    between atoms: _462  and  _465
REMARK  199  A    between atoms: _465  and  _466
REMARK  200  A    between atoms: _469  and  _471
REMARK  201  A    between atoms: _471  and  _472
REMARK  202  A    between atoms: _471  and  _474
REMARK  203  A    between atoms: _477  and  _479
REMARK  204  A    between atoms: _479  and  _480
REMARK  205  A    between atoms: _479  and  _482
REMARK  206  A    between atoms: _482  and  _483
REMARK  207  A    between atoms: _483  and  _484
REMARK  208  A    between atoms: _484  and  _485
REMARK  209  A    between atoms: _494  and  _496
REMARK  210  A    between atoms: _496  and  _497
REMARK  211  A    between atoms: _496  and  _499
REMARK  212  A    between atoms: _499  and  _500
REMARK  213  A    between atoms: _503  and  _505
REMARK  214  A    between atoms: _505  and  _506
REMARK  215  A    between atoms: _505  and  _508
REMARK  216  A    between atoms: _508  and  _509
REMARK  217  A    between atoms: _512  and  _514
REMARK  218  A    between atoms: _514  and  _515
REMARK  219  A    between atoms: _514  and  _517
REMARK  220  A    between atoms: _517  and  _518
REMARK  221  A    between atoms: _518  and  _519
REMARK  222  A    between atoms: _524  and  _526
REMARK  223  A    between atoms: _526  and  _527
REMARK  224  A    between atoms: _526  and  _529
REMARK  225  A    between atoms: _532  and  _534
REMARK  226  A    between atoms: _534  and  _535
REMARK  227  A    between atoms: _534  and  _537
REMARK  228  A    between atoms: _537  and  _538
REMARK  229  A    between atoms: _541  and  _543
REMARK  230  A    between atoms: _543  and  _544
REMARK  231  A    between atoms: _543  and  _546
REMARK  232  A    between atoms: _546  and  _547
REMARK  233  A    between atoms: _547  and  _548
REMARK  234  A    between atoms: _550  and  _552
REMARK  235  A    between atoms: _552  and  _553
REMARK  236  A    between atoms: _552  and  _555
REMARK  237  A    between atoms: _555  and  _556
REMARK  238  A    between atoms: _556  and  _557
REMARK  239  A    between atoms: _560  and  _562
REMARK  240  A    between atoms: _562  and  _563
REMARK  241  A    between atoms: _562  and  _565
REMARK  242  A    between atoms: _565  and  _566
REMARK  243  A    between atoms: _569  and  _571
REMARK  244  A    between atoms: _571  and  _572
REMARK  245  A    between atoms: _571  and  _574
REMARK  246  A    between atoms: _574  and  _575
REMARK  247  A    between atoms: _575  and  _576
REMARK  248  A    between atoms: _581  and  _583
REMARK  249  A    between atoms: _583  and  _584
REMARK  250  A    between atoms: _583  and  _586
REMARK  251  A    between atoms: _586  and  _587
REMARK  252  A    between atoms: _590  and  _592
REMARK  253  A    between atoms: _592  and  _593
REMARK  254  A    between atoms: _592  and  _595
REMARK  255  A    between atoms: _595  and  _596
REMARK  256  A    between atoms: _601  and  _603
REMARK  257  A    between atoms: _603  and  _604
REMARK  258  A    between atoms: _607  and  _609
REMARK  259  A    between atoms: _609  and  _610
REMARK  260  A    between atoms: _609  and  _612
REMARK  261  A    between atoms: _612  and  _613
REMARK  262  A    between atoms: _616  and  _618
REMARK  263  A    between atoms: _618  and  _619
REMARK  264  A    between atoms: _618  and  _621
REMARK  265  A    between atoms: _624  and  _626
REMARK  266  A    between atoms: _626  and  _627
REMARK  267  A    between atoms: _626  and  _629
REMARK  268  A    between atoms: _629  and  _630
REMARK  269  A    between atoms: _630  and  _631
REMARK  270  A    between atoms: _631  and  _632
REMARK  271  A    between atoms: _641  and  _643
REMARK  272  A    between atoms: _643  and  _644
REMARK  273  A    between atoms: _643  and  _646
REMARK  274  A    between atoms: _646  and  _647
REMARK  275  A    between atoms: _650  and  _652
REMARK  276  A    between atoms: _652  and  _653
REMARK  277  A    between atoms: _652  and  _655
REMARK  278  A    between atoms: _655  and  _656
REMARK  279  A    between atoms: _659  and  _661
REMARK  280  A    between atoms: _661  and  _662
REMARK  281  A    between atoms: _661  and  _664
REMARK  282  A    between atoms: _664  and  _665
REMARK  283  A    between atoms: _665  and  _666
REMARK  284  A    between atoms: _666  and  _667
REMARK  285  A    between atoms: _676  and  _678
REMARK  286  A    between atoms: _678  and  _679
REMARK  287  A    between atoms: _678  and  _681
REMARK  288  A    between atoms: _681  and  _682
REMARK  289  A    between atoms: _682  and  _683
REMARK  290  A    between atoms: _688  and  _690
REMARK  291  A    between atoms: _690  and  _691
REMARK  292  A    between atoms: _690  and  _693
REMARK  293  A    between atoms: _696  and  _698
REMARK  294  A    between atoms: _698  and  _699
REMARK  295  A    between atoms: _698  and  _701
REMARK  296  A    between atoms: _701  and  _702
REMARK                            x       y       z     vdW  Elec       q    Type
REMARK                         _______ _______ _______ _____ _____    ______ ____
ROOT
ATOM      1  C   THR A   1      13.993   5.125   3.443  0.00  0.00    +0.241 C 
ATOM      2  O   THR A   1      13.115   4.915   4.277  0.00  0.00    -0.274 OA
ATOM      3  N   ASN A   2      15.245   4.699   3.586  0.00  0.00    -0.298 N 
ATOM      4  H   ASN A   2      15.946   4.897   2.843  0.00  0.00    +0.150 HD
ENDROOT
BRANCH   1   5
ATOM      5  CA  THR A   1      13.686   5.893   2.168  0.00  0.00    +0.172 C 
BRANCH   5   6
ATOM      6  N   THR A   1      14.683   6.948   1.997  0.00  0.00    -0.236 NA
ATOM      7  H   THR A   1      15.282   6.949   1.147  0.00  0.00    +0.142 HD
ENDBRANCH   5   6
BRANCH   5   8
ATOM      8  CB  THR A   1      13.701   4.876   0.996  0.00  0.00    +0.135 C 
ATOM      9  CG2 THR A   1      12.862   3.643   1.342  0.00  0.00    +0.034 C 
BRANCH   8  10
ATOM     10  OG1 THR A   1      13.163   5.489  -0.177  0.00  0.00    -0.383 OA
ATOM     11  HG1 THR A   1      13.712   6.277  -0.417  0.00  0.00    +0.210 HD
ENDBRANCH   8  10
ENDBRANCH   5   8
ENDBRANCH   1   5
BRANCH   3  12
ATOM     12  CA  ASN A   2      15.642   3.957   4.775  0.00  0.00    +0.146 C 
BRANCH  12  13
ATOM     13  C   ASN A   2      15.491   4.783   6.048  0.00  0.00    +0.227 C 
ATOM     14  O   ASN A   2      15.174   4.245   7.108  0.00  0.00    -0.286 OA
ENDBRANCH  12  13
BRANCH  12  15
ATOM     15  CB  ASN A   2      17.074   3.436   4.623  0.00  0.00    +0.112 C 
BRANCH  15  16
ATOM     16  CG  ASN A   2      17.140   2.213   3.728  0.00  0.00    +0.222 C 
ATOM     17  OD1 ASN A   2      16.284   1.333   3.818  0.00  0.00    -0.275 OA
ATOM     18  ND2 ASN A   2      18.151   2.145   2.870  0.00  0.00    -0.329 N 
ATOM     19 HD21 ASN A   2      18.851   2.913   2.829  0.00  0.00    +0.145 HD
ATOM     20 HD22 ASN A   2      18.243   1.324   2.239  0.00  0.00    +0.145 HD
ENDBRANCH  15  16
ENDBRANCH  12  15
ENDBRANCH   3  12
TORSDOF 8
REMARK  Name = ../refined-set-2016/3v2p/3v2p_pocket.pdb
REMARK  296 active torsions:
REMARK  status: ('A' for Active; 'I' for Inactive)
REMARK    1  A    between atoms: _1  and  _3
REMARK    2  A    between atoms: _3  and  _4
REMARK    3  A    between atoms: _3  and  _6
REMARK    4  A    between atoms: _6  and  _7
REMARK    5  A    between atoms: _7  and  _8
REMARK    6  A    between atoms: _10  and  _12
REMARK    7  A    between atoms: _12  and  _13
REMARK    8  A    between atoms: _12  and  _15
REMARK    9  A    between atoms: _15  and  _16
REMARK   10  A    between atoms: _16  and  _17
REMARK   11  A    between atoms: _20  and  _22
REMARK   12  A    between atoms: _22  and  _23
REMARK   13  A    between atoms: _22  and  _25
REMARK   14  A    between atoms: _25  and  _26
REMARK   15  A    between atoms: _29  and  _31
REMARK   16  A    between atoms: _31  and  _32
REMARK   17  A    between atoms: _31  and  _34
REMARK   18  A    between atoms: _34  and  _35
REMARK   19  A    between atoms: _38  and  _40
REMARK   20  A    between atoms: _40  and  _41
REMARK   21  A    between atoms: _40  and  _43
REMARK   22  A    between atoms: _43  and  _44
REMARK   23  A    between atoms: _49  and  _51
REMARK   24  A    between atoms: _51  and  _52
REMARK   25  A    between atoms: _55  and  _57
REMARK   26  A    between atoms: _57  and  _58
REMARK   27  A    between atoms: _57  and  _60
REMARK   28  A    between atoms: _60  and  _61
REMARK   29  A    between atoms: _64  and  _66
REMARK   30  A    between atoms: _66  and  _67
REMARK   31  A    between atoms: _66  and  _69
REMARK   32  A    between atoms: _72  and  _74
REMARK   33  A    between atoms: _74  and  _75
REMARK   34  A    between atoms: _74  and  _77
REMARK   35  A    between atoms: _77  and  _78
REMARK   36  A    between atoms: _78  and  _79
REMARK   37  A    between atoms: _79  and  _80
REMARK   38  A    between atoms: _89  and  _91
REMARK   39  A    between atoms: _91  and  _92
REMARK   40  A    between atoms: _91  and  _94
REMARK   41  A    between atoms: _94  and  _95
REMARK   42  A    between atoms: _98  and  _100
REMARK   43  A    between atoms: _100  and  _101
REMARK   44  A    between atoms: _100  and  _103
REMARK   45  A    between atoms: _103  and  _104
REMARK   46  A    between atoms: _107  and  _109
REMARK   47  A    between atoms: _109  and  _110
REMARK   48  A    between atoms: _109  and  _112
REMARK   49  A    between atoms: _112  and  _113
REMARK   50  A    between atoms: _113  and  _114
REMARK   51  A    between atoms: _119  and  _121
REMARK   52  A    between atoms: _121  and  _122
REMARK   53  A    between atoms: _121  and  _124
REMARK   54  A    between atoms: _127  and  _129
REMARK   55  A    between atoms: _129  and  _130
REMARK   56  A    between atoms: _129  and  _132
REMARK   57  A    between atoms: _132  and  _133
REMARK   58  A    between atoms: _136  and  _138
REMARK   59  A    between atoms: _138  and  _139
REMARK   60  A    between atoms: _138  and  _141
REMARK   61  A    between atoms: _141  and  _142
REMARK   62  A    between atoms: _142  and  _143
REMARK   63  A    between atoms: _145  and  _147
REMARK   64  A    between atoms: _147  and  _148
REMARK   65  A    between atoms: _147  and  _150
REMARK   66  A    between atoms: _150  and  _151
REMARK   67  A    between atoms: _151  and  _152
REMARK   68  A    between atoms: _155  and  _157
REMARK   69  A    between atoms: _157  and  _158
REMARK   70  A    between atoms: _157  and  _160
REMARK   71  A    between atoms: _160  and  _161
REMARK   72  A    between atoms: _164  and  _166
REMARK   73  A    between atoms: _166  and  _167
REMARK   74  A    between atoms: _166  and  _169
REMARK   75  A    between atoms: _169  and  _170
REMARK   76  A    between atoms: _173  and  _175
REMARK   77  A    between atoms: _175  and  _176
REMARK   78  A    between atoms: _175  and  _178
REMARK   79  A    between atoms: _178  and  _179
REMARK   80  A    between atoms: _184  and  _186
REMARK   81  A    between atoms: _186  and  _187
REMARK   82  A    between atoms: _190  and  _192
REMARK   83  A    between atoms: _192  and  _193
REMARK   84  A    between atoms: _192  and  _195
REMARK   85  A    between atoms: _195  and  _196
REMARK   86  A    between atoms: _199  and  _201
REMARK   87  A    between atoms: _201  and  _202
REMARK   88  A    between atoms: _201  and  _204
REMARK   89  A    between atoms: _207  and  _209
REMARK   90  A    between atoms: _209  and  _210
REMARK   91  A    between atoms: _209  and  _212
REMARK   92  A    between atoms: _212  and  _213
REMARK   93  A    between atoms: _213  and  _214
REMARK   94  A    between atoms: _214  and  _215
REMARK   95  A    between atoms: _224  and  _226
REMARK   96  A    between atoms: _226  and  _227
REMARK   97  A    between atoms: _226  and  _229
REMARK   98  A    between atoms: _229  and  _230
REMARK   99  A    between atoms: _233  and  _235
REMARK  100  A    between atoms: _235  and  _236
REMARK  101  A    between atoms: _235  and  _238
REMARK  102  A    between atoms: _238  and  _239
REMARK  103  A    between atoms: _242  and  _244
REMARK  104  A    between atoms: _244  and  _245
REMARK  105  A    between atoms: _244  and  _247
REMARK  106  A    between atoms: _247  and  _248
REMARK  107  A    between atoms: _248  and  _249
REMARK  108  A    between atoms: _254  and  _256
REMARK  109  A    between atoms: _256  and  _257
REMARK  110  A    between atoms: _256  and  _259
REMARK  111  A    between atoms: _262  and  _264
REMARK  112  A    between atoms: _264  and  _265
REMARK  113  A    between atoms: _264  and  _267
REMARK  114  A    between atoms: _267  and  _268
REMARK  115  A    between atoms: _271  and  _273
REMARK  116  A    between atoms: _273  and  _274
REMARK  117  A    between atoms: _273  and  _276
REMARK  118  A    between atoms: _276  and  _277
REMARK  119  A    between atoms: _277  and  _278
REMARK  120  A    between atoms: _280  and  _282
REMARK  121  A    between atoms: _282  and  _283
REMARK  122  A    between atoms: _282  and  _285
REMARK  123  A    between atoms: _285  and  _286
REMARK  124  A    between atoms: _286  and  _287
REMARK  125  A    between atoms: _290  and  _292
REMARK  126  A    between atoms: _292  and  _293
REMARK  127  A    between atoms: _292  and  _295
REMARK  128  A    between atoms: _295  and  _296
REMARK  129  A    between atoms: _299  and  _301
REMARK  130  A    between atoms: _301  and  _302
REMARK  131  A    between atoms: _301  and  _304
REMARK  132  A    between atoms: _304  and  _305
REMARK  133  A    between atoms: _308  and  _310
REMARK  134  A    between atoms: _310  and  _311
REMARK  135  A    between atoms: _310  and  _313
REMARK  136  A    between atoms: _313  and  _314
REMARK  137  A    between atoms: _319  and  _321
REMARK  138  A    between atoms: _321  and  _322
REMARK  139  A    between atoms: _325  and  _327
REMARK  140  A    between atoms: _327  and  _328
REMARK  141  A    between atoms: _327  and  _330
REMARK  142  A    between atoms: _330  and  _331
REMARK  143  A    between atoms: _334  and  _336
REMARK  144  A    between atoms: _336  and  _337
REMARK  145  A    between atoms: _336  and  _339
REMARK  146  A    between atoms: _342  and  _344
REMARK  147  A    between atoms: _344  and  _345
REMARK  148  A    between atoms: _344  and  _347
REMARK  149  A    between atoms: _347  and  _348
REMARK  150  A    between atoms: _348  and  _349
REMARK  151  A    between atoms: _349  and  _350
REMARK  152  A    between atoms: _359  and  _361
REMARK  153  A    between atoms: _361  and  _362
REMARK  154  A    between atoms: _361  and  _364
REMARK  155  A    between atoms: _364  and  _365
REMARK  156  A    between atoms: _368  and  _370
REMARK  157  A    between atoms: _370  and  _371
REMARK  158  A    between atoms: _370  and  _373
REMARK  159  A    between atoms: _373  and  _374
REMARK  160  A    between atoms: _377  and  _379
REMARK  161  A    between atoms: _379  and  _380
REMARK  162  A    between atoms: _379  and  _382
REMARK  163  A    between atoms: _382  and  _383
REMARK  164  A    between atoms: _383  and  _384
REMARK  165  A    between atoms: _389  and  _391
REMARK  166  A    between atoms: _391  and  _392
REMARK  167  A    between atoms: _391  and  _394
REMARK  168  A    between atoms: _397  and  _399
REMARK  169  A    between atoms: _399  and  _400
REMARK  170  A    between atoms: _399  and  _402
REMARK  171  A    between atoms: _402  and  _403
REMARK  172  A    between atoms: _406  and  _408
REMARK  173  A    between atoms: _408  and  _409
REMARK  174  A    between atoms: _408  and  _411
REMARK  175  A    between atoms: _411  and  _412
REMARK  176  A    between atoms: _412  and  _413
REMARK  177  A    between atoms: _415  and  _417
REMARK  178  A    between atoms: _417  and  _418
REMARK  179  A    between atoms: _417  and  _420
REMARK  180  A    between atoms: _420  and  _421
REMARK  181  A    between atoms: _421  and  _422
REMARK  182  A    between atoms: _425  and  _427
REMARK  183  A    between atoms: _427  and  _428
REMARK  184  A    between atoms: _427  and  _430
REMARK  185  A    between atoms: _430  and  _431
REMARK  186  A    between atoms: _434  and  _436
REMARK  187  A    between atoms: _436  and  _437
REMARK  188  A    between atoms: _436  and  _439
REMARK  189  A    between atoms: _439  and  _440
REMARK  190  A    between atoms: _443  and  _445
REMARK  191  A    between atoms: _445  and  _446
REMARK  192  A    between atoms: _445  and  _448
REMARK  193  A    between atoms: _448  and  _449
REMARK  194  A    between atoms: _454  and  _456
REMARK  195  A    between atoms: _456  and  _457
REMARK  196  A    between atoms: _460  and  _462
REMARK  197  A    between atoms: _462  and  _463
REMARK  198  A    between atoms: _462  and  _465
REMARK  199  A    between atoms: _465  and  _466
REMARK  200  A    between atoms: _469  and  _471
REMARK  201  A    between atoms: _471  and  _472
REMARK  202  A    between atoms: _471  and  _474
REMARK  203  A    between atoms: _477  and  _479
REMARK  204  A    between atoms: _479  and  _480
REMARK  205  A    between atoms: _479  and  _482
REMARK  206  A    between atoms: _482  and  _483
REMARK  207  A    between atoms: _483  and  _484
REMARK  208  A    between atoms: _484  and  _485
REMARK  209  A    between atoms: _494  and  _496
REMARK  210  A    between atoms: _496  and  _497
REMARK  211  A    between atoms: _496  and  _499
REMARK  212  A    between atoms: _499  and  _500
REMARK  213  A    between atoms: _503  and  _505
REMARK  214  A    between atoms: _505  and  _506
REMARK  215  A    between atoms: _505  and  _508
REMARK  216  A    between atoms: _508  and  _509
REMARK  217  A    between atoms: _512  and  _514
REMARK  218  A    between atoms: _514  and  _515
REMARK  219  A    between atoms: _514  and  _517
REMARK  220  A    between atoms: _517  and  _518
REMARK  221  A    between atoms: _518  and  _519
REMARK  222  A    between atoms: _524  and  _526
REMARK  223  A    between atoms: _526  and  _527
REMARK  224  A    between atoms: _526  and  _529
REMARK  225  A    between atoms: _532  and  _534
REMARK  226  A    between atoms: _534  and  _535
REMARK  227  A    between atoms: _534  and  _537
REMARK  228  A    between atoms: _537  and  _538
REMARK  229  A    between atoms: _541  and  _543
REMARK  230  A    between atoms: _543  and  _544
REMARK  231  A    between atoms: _543  and  _546
REMARK  232  A    between atoms: _546  and  _547
REMARK  233  A    between atoms: _547  and  _548
REMARK  234  A    between atoms: _550  and  _552
REMARK  235  A    between atoms: _552  and  _553
REMARK  236  A    between atoms: _552  and  _555
REMARK  237  A    between atoms: _555  and  _556
REMARK  238  A    between atoms: _556  and  _557
REMARK  239  A    between atoms: _560  and  _562
REMARK  240  A    between atoms: _562  and  _563
REMARK  241  A    between atoms: _562  and  _565
REMARK  242  A    between atoms: _565  and  _566
REMARK  243  A    between atoms: _569  and  _571
REMARK  244  A    between atoms: _571  and  _572
REMARK  245  A    between atoms: _571  and  _574
REMARK  246  A    between atoms: _574  and  _575
REMARK  247  A    between atoms: _575  and  _576
REMARK  248  A    between atoms: _581  and  _583
REMARK  249  A    between atoms: _583  and  _584
REMARK  250  A    between atoms: _583  and  _586
REMARK  251  A    between atoms: _586  and  _587
REMARK  252  A    between atoms: _590  and  _592
REMARK  253  A    between atoms: _592  and  _593
REMARK  254  A    between atoms: _592  and  _595
REMARK  255  A    between atoms: _595  and  _596
REMARK  256  A    between atoms: _601  and  _603
REMARK  257  A    between atoms: _603  and  _604
REMARK  258  A    between atoms: _607  and  _609
REMARK  259  A    between atoms: _609  and  _610
REMARK  260  A    between atoms: _609  and  _612
REMARK  261  A    between atoms: _612  and  _613
REMARK  262  A    between atoms: _616  and  _618
REMARK  263  A    between atoms: _618  and  _619
REMARK  264  A    between atoms: _618  and  _621
REMARK  265  A    between atoms: _624  and  _626
REMARK  266  A    between atoms: _626  and  _627
REMARK  267  A    between atoms: _626  and  _629
REMARK  268  A    between atoms: _629  and  _630
REMARK  269  A    between atoms: _630  and  _631
REMARK  270  A    between atoms: _631  and  _632
REMARK  271  A    between atoms: _641  and  _643
REMARK  272  A    between atoms: _643  and  _644
REMARK  273  A    between atoms: _643  and  _646
REMARK  274  A    between atoms: _646  and  _647
REMARK  275  A    between atoms: _650  and  _652
REMARK  276  A    between atoms: _652  and  _653
REMARK  277  A    between atoms: _652  and  _655
REMARK  278  A    between atoms: _655  and  _656
REMARK  279  A    between atoms: _659  and  _661
REMARK  280  A    between atoms: _661  and  _662
REMARK  281  A    between atoms: _661  and  _664
REMARK  282  A    between atoms: _664  and  _665
REMARK  283  A    between atoms: _665  and  _666
REMARK  284  A    between atoms: _666  and  _667
REMARK  285  A    between atoms: _676  and  _678
REMARK  286  A    between atoms: _678  and  _679
REMARK  287  A    between atoms: _678  and  _681
REMARK  288  A    between atoms: _681  and  _682
REMARK  289  A    between atoms: _682  and  _683
REMARK  290  A    between atoms: _688  and  _690
REMARK  291  A    between atoms: _690  and  _691
REMARK  292  A    between atoms: _690  and  _693
REMARK  293  A    between atoms: _696  and  _698
REMARK  294  A    between atoms: _698  and  _699
REMARK  295  A    between atoms: _698  and  _701
REMARK  296  A    between atoms: _701  and  _702
REMARK                            x       y       z     vdW  Elec       q    Type
REMARK                         _______ _______ _______ _____ _____    ______ ____
ROOT
ATOM      1  C   ALA A   1      11.303   5.725   7.401  0.00  0.00    +0.238 C 
ATOM      2  O   ALA A   1      10.482   5.573   8.307  0.00  0.00    -0.274 OA
ATOM      3  N   LEU A   2      11.844   4.702   6.755  0.00  0.00    -0.298 N 
ATOM      4  H   LEU A   2      12.537   4.876   5.999  0.00  0.00    +0.150 HD
ENDROOT
BRANCH   1   5
ATOM      5  CA  ALA A   1      11.754   7.124   6.979  0.00  0.00    +0.145 C 
ATOM      6  CB  ALA A   1      10.939   7.604   5.778  0.00  0.00    +0.028 C 
BRANCH   5   7
ATOM      7  N   ALA A   1      13.177   7.144   6.657  0.00  0.00    -0.238 NA
ATOM      8  H   ALA A   1      13.477   7.352   5.683  0.00  0.00    +0.142 HD
ENDBRANCH   5   7
ENDBRANCH   1   5
BRANCH   3   9
ATOM      9  CA  LEU A   2      11.473   3.333   7.098  0.00  0.00    +0.137 C 
BRANCH   9  10
ATOM     10  C   LEU A   2      11.919   2.993   8.523  0.00  0.00    +0.227 C 
ATOM     11  O   LEU A   2      11.229   2.273   9.247  0.00  0.00    -0.286 OA
ENDBRANCH   9  10
BRANCH   9  12
ATOM     12  CB  LEU A   2      12.094   2.362   6.093  0.00  0.00    +0.028 C 
BRANCH  12  13
ATOM     13  CG  LEU A   2      11.757   0.876   6.219  0.00  0.00    +0.002 C 
ATOM     14  CD2 LEU A   2      10.248   0.677   6.351  0.00  0.00    +0.000 C 
ATOM     15  CD1 LEU A   2      12.293   0.151   4.989  0.00  0.00    +0.000 C 
ENDBRANCH  12  13
ENDBRANCH   9  12
ENDBRANCH   3   9
TORSDOF 6
REMARK  Name = ../refined-set-2016/3v2p/3v2p_pocket.pdb
REMARK  296 active torsions:
REMARK  status: ('A' for Active; 'I' for Inactive)
REMARK    1  A    between atoms: _1  and  _3
REMARK    2  A    between atoms: _3  and  _4
REMARK    3  A    between atoms: _3  and  _6
REMARK    4  A    between atoms: _6  and  _7
REMARK    5  A    between atoms: _7  and  _8
REMARK    6  A    between atoms: _10  and  _12
REMARK    7  A    between atoms: _12  and  _13
REMARK    8  A    between atoms: _12  and  _15
REMARK    9  A    between atoms: _15  and  _16
REMARK   10  A    between atoms: _16  and  _17
REMARK   11  A    between atoms: _20  and  _22
REMARK   12  A    between atoms: _22  and  _23
REMARK   13  A    between atoms: _22  and  _25
REMARK   14  A    between atoms: _25  and  _26
REMARK   15  A    between atoms: _29  and  _31
REMARK   16  A    between atoms: _31  and  _32
REMARK   17  A    between atoms: _31  and  _34
REMARK   18  A    between atoms: _34  and  _35
REMARK   19  A    between atoms: _38  and  _40
REMARK   20  A    between atoms: _40  and  _41
REMARK   21  A    between atoms: _40  and  _43
REMARK   22  A    between atoms: _43  and  _44
REMARK   23  A    between atoms: _49  and  _51
REMARK   24  A    between atoms: _51  and  _52
REMARK   25  A    between atoms: _55  and  _57
REMARK   26  A    between atoms: _57  and  _58
REMARK   27  A    between atoms: _57  and  _60
REMARK   28  A    between atoms: _60  and  _61
REMARK   29  A    between atoms: _64  and  _66
REMARK   30  A    between atoms: _66  and  _67
REMARK   31  A    between atoms: _66  and  _69
REMARK   32  A    between atoms: _72  and  _74
REMARK   33  A    between atoms: _74  and  _75
REMARK   34  A    between atoms: _74  and  _77
REMARK   35  A    between atoms: _77  and  _78
REMARK   36  A    between atoms: _78  and  _79
REMARK   37  A    between atoms: _79  and  _80
REMARK   38  A    between atoms: _89  and  _91
REMARK   39  A    between atoms: _91  and  _92
REMARK   40  A    between atoms: _91  and  _94
REMARK   41  A    between atoms: _94  and  _95
REMARK   42  A    between atoms: _98  and  _100
REMARK   43  A    between atoms: _100  and  _101
REMARK   44  A    between atoms: _100  and  _103
REMARK   45  A    between atoms: _103  and  _104
REMARK   46  A    between atoms: _107  and  _109
REMARK   47  A    between atoms: _109  and  _110
REMARK   48  A    between atoms: _109  and  _112
REMARK   49  A    between atoms: _112  and  _113
REMARK   50  A    between atoms: _113  and  _114
REMARK   51  A    between atoms: _119  and  _121
REMARK   52  A    between atoms: _121  and  _122
REMARK   53  A    between atoms: _121  and  _124
REMARK   54  A    between atoms: _127  and  _129
REMARK   55  A    between atoms: _129  and  _130
REMARK   56  A    between atoms: _129  and  _132
REMARK   57  A    between atoms: _132  and  _133
REMARK   58  A    between atoms: _136  and  _138
REMARK   59  A    between atoms: _138  and  _139
REMARK   60  A    between atoms: _138  and  _141
REMARK   61  A    between atoms: _141  and  _142
REMARK   62  A    between atoms: _142  and  _143
REMARK   63  A    between atoms: _145  and  _147
REMARK   64  A    between atoms: _147  and  _148
REMARK   65  A    between atoms: _147  and  _150
REMARK   66  A    between atoms: _150  and  _151
REMARK   67  A    between atoms: _151  and  _152
REMARK   68  A    between atoms: _155  and  _157
REMARK   69  A    between atoms: _157  and  _158
REMARK   70  A    between atoms: _157  and  _160
REMARK   71  A    between atoms: _160  and  _161
REMARK   72  A    between atoms: _164  and  _166
REMARK   73  A    between atoms: _166  and  _167
REMARK   74  A    between atoms: _166  and  _169
REMARK   75  A    between atoms: _169  and  _170
REMARK   76  A    between atoms: _173  and  _175
REMARK   77  A    between atoms: _175  and  _176
REMARK   78  A    between atoms: _175  and  _178
REMARK   79  A    between atoms: _178  and  _179
REMARK   80  A    between atoms: _184  and  _186
REMARK   81  A    between atoms: _186  and  _187
REMARK   82  A    between atoms: _190  and  _192
REMARK   83  A    between atoms: _192  and  _193
REMARK   84  A    between atoms: _192  and  _195
REMARK   85  A    between atoms: _195  and  _196
REMARK   86  A    between atoms: _199  and  _201
REMARK   87  A    between atoms: _201  and  _202
REMARK   88  A    between atoms: _201  and  _204
REMARK   89  A    between atoms: _207  and  _209
REMARK   90  A    between atoms: _209  and  _210
REMARK   91  A    between atoms: _209  and  _212
REMARK   92  A    between atoms: _212  and  _213
REMARK   93  A    between atoms: _213  and  _214
REMARK   94  A    between atoms: _214  and  _215
REMARK   95  A    between atoms: _224  and  _226
REMARK   96  A    between atoms: _226  and  _227
REMARK   97  A    between atoms: _226  and  _229
REMARK   98  A    between atoms: _229  and  _230
REMARK   99  A    between atoms: _233  and  _235
REMARK  100  A    between atoms: _235  and  _236
REMARK  101  A    between atoms: _235  and  _238
REMARK  102  A    between atoms: _238  and  _239
REMARK  103  A    between atoms: _242  and  _244
REMARK  104  A    between atoms: _244  and  _245
REMARK  105  A    between atoms: _244  and  _247
REMARK  106  A    between atoms: _247  and  _248
REMARK  107  A    between atoms: _248  and  _249
REMARK  108  A    between atoms: _254  and  _256
REMARK  109  A    between atoms: _256  and  _257
REMARK  110  A    between atoms: _256  and  _259
REMARK  111  A    between atoms: _262  and  _264
REMARK  112  A    between atoms: _264  and  _265
REMARK  113  A    between atoms: _264  and  _267
REMARK  114  A    between atoms: _267  and  _268
REMARK  115  A    between atoms: _271  and  _273
REMARK  116  A    between atoms: _273  and  _274
REMARK  117  A    between atoms: _273  and  _276
REMARK  118  A    between atoms: _276  and  _277
REMARK  119  A    between atoms: _277  and  _278
REMARK  120  A    between atoms: _280  and  _282
REMARK  121  A    between atoms: _282  and  _283
REMARK  122  A    between atoms: _282  and  _285
REMARK  123  A    between atoms: _285  and  _286
REMARK  124  A    between atoms: _286  and  _287
REMARK  125  A    between atoms: _290  and  _292
REMARK  126  A    between atoms: _292  and  _293
REMARK  127  A    between atoms: _292  and  _295
REMARK  128  A    between atoms: _295  and  _296
REMARK  129  A    between atoms: _299  and  _301
REMARK  130  A    between atoms: _301  and  _302
REMARK  131  A    between atoms: _301  and  _304
REMARK  132  A    between atoms: _304  and  _305
REMARK  133  A    between atoms: _308  and  _310
REMARK  134  A    between atoms: _310  and  _311
REMARK  135  A    between atoms: _310  and  _313
REMARK  136  A    between atoms: _313  and  _314
REMARK  137  A    between atoms: _319  and  _321
REMARK  138  A    between atoms: _321  and  _322
REMARK  139  A    between atoms: _325  and  _327
REMARK  140  A    between atoms: _327  and  _328
REMARK  141  A    between atoms: _327  and  _330
REMARK  142  A    between atoms: _330  and  _331
REMARK  143  A    between atoms: _334  and  _336
REMARK  144  A    between atoms: _336  and  _337
REMARK  145  A    between atoms: _336  and  _339
REMARK  146  A    between atoms: _342  and  _344
REMARK  147  A    between atoms: _344  and  _345
REMARK  148  A    between atoms: _344  and  _347
REMARK  149  A    between atoms: _347  and  _348
REMARK  150  A    between atoms: _348  and  _349
REMARK  151  A    between atoms: _349  and  _350
REMARK  152  A    between atoms: _359  and  _361
REMARK  153  A    between atoms: _361  and  _362
REMARK  154  A    between atoms: _361  and  _364
REMARK  155  A    between atoms: _364  and  _365
REMARK  156  A    between atoms: _368  and  _370
REMARK  157  A    between atoms: _370  and  _371
REMARK  158  A    between atoms: _370  and  _373
REMARK  159  A    between atoms: _373  and  _374
REMARK  160  A    between atoms: _377  and  _379
REMARK  161  A    between atoms: _379  and  _380
REMARK  162  A    between atoms: _379  and  _382
REMARK  163  A    between atoms: _382  and  _383
REMARK  164  A    between atoms: _383  and  _384
REMARK  165  A    between atoms: _389  and  _391
REMARK  166  A    between atoms: _391  and  _392
REMARK  167  A    between atoms: _391  and  _394
REMARK  168  A    between atoms: _397  and  _399
REMARK  169  A    between atoms: _399  and  _400
REMARK  170  A    between atoms: _399  and  _402
REMARK  171  A    between atoms: _402  and  _403
REMARK  172  A    between atoms: _406  and  _408
REMARK  173  A    between atoms: _408  and  _409
REMARK  174  A    between atoms: _408  and  _411
REMARK  175  A    between atoms: _411  and  _412
REMARK  176  A    between atoms: _412  and  _413
REMARK  177  A    between atoms: _415  and  _417
REMARK  178  A    between atoms: _417  and  _418
REMARK  179  A    between atoms: _417  and  _420
REMARK  180  A    between atoms: _420  and  _421
REMARK  181  A    between atoms: _421  and  _422
REMARK  182  A    between atoms: _425  and  _427
REMARK  183  A    between atoms: _427  and  _428
REMARK  184  A    between atoms: _427  and  _430
REMARK  185  A    between atoms: _430  and  _431
REMARK  186  A    between atoms: _434  and  _436
REMARK  187  A    between atoms: _436  and  _437
REMARK  188  A    between atoms: _436  and  _439
REMARK  189  A    between atoms: _439  and  _440
REMARK  190  A    between atoms: _443  and  _445
REMARK  191  A    between atoms: _445  and  _446
REMARK  192  A    between atoms: _445  and  _448
REMARK  193  A    between atoms: _448  and  _449
REMARK  194  A    between atoms: _454  and  _456
REMARK  195  A    between atoms: _456  and  _457
REMARK  196  A    between atoms: _460  and  _462
REMARK  197  A    between atoms: _462  and  _463
REMARK  198  A    between atoms: _462  and  _465
REMARK  199  A    between atoms: _465  and  _466
REMARK  200  A    between atoms: _469  and  _471
REMARK  201  A    between atoms: _471  and  _472
REMARK  202  A    between atoms: _471  and  _474
REMARK  203  A    between atoms: _477  and  _479
REMARK  204  A    between atoms: _479  and  _480
REMARK  205  A    between atoms: _479  and  _482
REMARK  206  A    between atoms: _482  and  _483
REMARK  207  A    between atoms: _483  and  _484
REMARK  208  A    between atoms: _484  and  _485
REMARK  209  A    between atoms: _494  and  _496
REMARK  210  A    between atoms: _496  and  _497
REMARK  211  A    between atoms: _496  and  _499
REMARK  212  A    between atoms: _499  and  _500
REMARK  213  A    between atoms: _503  and  _505
REMARK  214  A    between atoms: _505  and  _506
REMARK  215  A    between atoms: _505  and  _508
REMARK  216  A    between atoms: _508  and  _509
REMARK  217  A    between atoms: _512  and  _514
REMARK  218  A    between atoms: _514  and  _515
REMARK  219  A    between atoms: _514  and  _517
REMARK  220  A    between atoms: _517  and  _518
REMARK  221  A    between atoms: _518  and  _519
REMARK  222  A    between atoms: _524  and  _526
REMARK  223  A    between atoms: _526  and  _527
REMARK  224  A    between atoms: _526  and  _529
REMARK  225  A    between atoms: _532  and  _534
REMARK  226  A    between atoms: _534  and  _535
REMARK  227  A    between atoms: _534  and  _537
REMARK  228  A    between atoms: _537  and  _538
REMARK  229  A    between atoms: _541  and  _543
REMARK  230  A    between atoms: _543  and  _544
REMARK  231  A    between atoms: _543  and  _546
REMARK  232  A    between atoms: _546  and  _547
REMARK  233  A    between atoms: _547  and  _548
REMARK  234  A    between atoms: _550  and  _552
REMARK  235  A    between atoms: _552  and  _553
REMARK  236  A    between atoms: _552  and  _555
REMARK  237  A    between atoms: _555  and  _556
REMARK  238  A    between atoms: _556  and  _557
REMARK  239  A    between atoms: _560  and  _562
REMARK  240  A    between atoms: _562  and  _563
REMARK  241  A    between atoms: _562  and  _565
REMARK  242  A    between atoms: _565  and  _566
REMARK  243  A    between atoms: _569  and  _571
REMARK  244  A    between atoms: _571  and  _572
REMARK  245  A    between atoms: _571  and  _574
REMARK  246  A    between atoms: _574  and  _575
REMARK  247  A    between atoms: _575  and  _576
REMARK  248  A    between atoms: _581  and  _583
REMARK  249  A    between atoms: _583  and  _584
REMARK  250  A    between atoms: _583  and  _586
REMARK  251  A    between atoms: _586  and  _587
REMARK  252  A    between atoms: _590  and  _592
REMARK  253  A    between atoms: _592  and  _593
REMARK  254  A    between atoms: _592  and  _595
REMARK  255  A    between atoms: _595  and  _596
REMARK  256  A    between atoms: _601  and  _603
REMARK  257  A    between atoms: _603  and  _604
REMARK  258  A    between atoms: _607  and  _609
REMARK  259  A    between atoms: _609  and  _610
REMARK  260  A    between atoms: _609  and  _612
REMARK  261  A    between atoms: _612  and  _613
REMARK  262  A    between atoms: _616  and  _618
REMARK  263  A    between atoms: _618  and  _619
REMARK  264  A    between atoms: _618  and  _621
REMARK  265  A    between atoms: _624  and  _626
REMARK  266  A    between atoms: _626  and  _627
REMARK  267  A    between atoms: _626  and  _629
REMARK  268  A    between atoms: _629  and  _630
REMARK  269  A    between atoms: _630  and  _631
REMARK  270  A    between atoms: _631  and  _632
REMARK  271  A    between atoms: _641  and  _643
REMARK  272  A    between atoms: _643  and  _644
REMARK  273  A    between atoms: _643  and  _646
REMARK  274  A    between atoms: _646  and  _647
REMARK  275  A    between atoms: _650  and  _652
REMARK  276  A    between atoms: _652  and  _653
REMARK  277  A    between atoms: _652  and  _655
REMARK  278  A    between atoms: _655  and  _656
REMARK  279  A    between atoms: _659  and  _661
REMARK  280  A    between atoms: _661  and  _662
REMARK  281  A    between atoms: _661  and  _664
REMARK  282  A    between atoms: _664  and  _665
REMARK  283  A    between atoms: _665  and  _666
REMARK  284  A    between atoms: _666  and  _667
REMARK  285  A    between atoms: _676  and  _678
REMARK  286  A    between atoms: _678  and  _679
REMARK  287  A    between atoms: _678  and  _681
REMARK  288  A    between atoms: _681  and  _682
REMARK  289  A    between atoms: _682  and  _683
REMARK  290  A    between atoms: _688  and  _690
REMARK  291  A    between atoms: _690  and  _691
REMARK  292  A    between atoms: _690  and  _693
REMARK  293  A    between atoms: _696  and  _698
REMARK  294  A    between atoms: _698  and  _699
REMARK  295  A    between atoms: _698  and  _701
REMARK  296  A    between atoms: _701  and  _702
REMARK                            x       y       z     vdW  Elec       q    Type
REMARK                         _______ _______ _______ _____ _____    ______ ____
ROOT
ATOM      1  CA  ARG A   2       9.897   0.609  12.515  0.00  0.00    +0.137 C 
ENDROOT
BRANCH   1   4
ATOM      2  C   VAL A   1       8.459   2.418  11.714  0.00  0.00    +0.238 C 
ATOM      3  O   VAL A   1       7.544   2.080  12.461  0.00  0.00    -0.274 OA
ATOM      4  N   ARG A   2       9.628   1.777  11.668  0.00  0.00    -0.298 N 
ATOM      5  H   ARG A   2      10.366   2.113  11.017  0.00  0.00    +0.150 HD
BRANCH   2   6
ATOM      6  CA  VAL A   1       8.294   3.628  10.793  0.00  0.00    +0.145 C 
BRANCH   6   7
ATOM      7  CB  VAL A   1       7.948   3.143   9.352  0.00  0.00    +0.025 C 
ATOM      8  CG2 VAL A   1       6.839   2.102   9.399  0.00  0.00    +0.002 C 
ATOM      9  CG1 VAL A   1       7.493   4.321   8.505  0.00  0.00    +0.002 C 
ENDBRANCH   6   7
BRANCH   6  10
ATOM     10  N   VAL A   1       9.499   4.449  10.804  0.00  0.00    -0.238 NA
ATOM     11  H   VAL A   1      10.020   4.601   9.917  0.00  0.00    +0.142 HD
ENDBRANCH   6  10
ENDBRANCH   2   6
ENDBRANCH   1   4
BRANCH   1  12
ATOM     12  C   ARG A   2       9.797   0.953  13.995  0.00  0.00    +0.227 C 
ATOM     13  O   ARG A   2       9.238   0.186  14.780  0.00  0.00    -0.286 OA
ENDBRANCH   1  12
BRANCH   1  14
ATOM     14  CB  ARG A   2      11.299   0.056  12.261  0.00  0.00    +0.031 C 
BRANCH  14  15
ATOM     15  CG  ARG A   2      11.540  -0.505  10.887  0.00  0.00    +0.045 C 
BRANCH  15  16
ATOM     16  CD  ARG A   2      13.012  -0.861  10.723  0.00  0.00    +0.174 C 
BRANCH  16  17
ATOM     17  NE  ARG A   2      13.465  -1.818  11.731  0.00  0.00    -0.265 N 
ATOM     18  HE  ARG A   2      12.768  -2.167  12.419  0.00  0.00    +0.259 HD
ATOM     19  CZ  ARG A   2      14.712  -2.271  11.824  0.00  0.00    +0.342 C 
ATOM     20  NH2 ARG A   2      15.029  -3.158  12.757  0.00  0.00    -0.292 N 
ATOM     21 HH21 ARG A   2      14.302  -3.500  13.417  0.00  0.00    +0.255 HD
ATOM     22 HH22 ARG A   2      16.005  -3.511  12.829  0.00  0.00    +0.255 HD
ATOM     23  NH1 ARG A   2      15.640  -1.852  10.973  0.00  0.00    -0.292 N 
ATOM     24 HH11 ARG A   2      16.614  -2.208  11.049  0.00  0.00    +0.255 HD
ATOM     25 HH12 ARG A   2      15.393  -1.167  10.230  0.00  0.00    +0.255 HD
ENDBRANCH  16  17
ENDBRANCH  15  16
ENDBRANCH  14  15
ENDBRANCH   1  14
TORSDOF 9
REMARK  Name = ../refined-set-2016/3v2p/3v2p_pocket.pdb
REMARK  296 active torsions:
REMARK  status: ('A' for Active; 'I' for Inactive)
REMARK    1  A    between atoms: _1  and  _3
REMARK    2  A    between atoms: _3  and  _4
REMARK    3  A    between atoms: _3  and  _6
REMARK    4  A    between atoms: _6  and  _7
REMARK    5  A    between atoms: _7  and  _8
REMARK    6  A    between atoms: _10  and  _12
REMARK    7  A    between atoms: _12  and  _13
REMARK    8  A    between atoms: _12  and  _15
REMARK    9  A    between atoms: _15  and  _16
REMARK   10  A    between atoms: _16  and  _17
REMARK   11  A    between atoms: _20  and  _22
REMARK   12  A    between atoms: _22  and  _23
REMARK   13  A    between atoms: _22  and  _25
REMARK   14  A    between atoms: _25  and  _26
REMARK   15  A    between atoms: _29  and  _31
REMARK   16  A    between atoms: _31  and  _32
REMARK   17  A    between atoms: _31  and  _34
REMARK   18  A    between atoms: _34  and  _35
REMARK   19  A    between atoms: _38  and  _40
REMARK   20  A    between atoms: _40  and  _41
REMARK   21  A    between atoms: _40  and  _43
REMARK   22  A    between atoms: _43  and  _44
REMARK   23  A    between atoms: _49  and  _51
REMARK   24  A    between atoms: _51  and  _52
REMARK   25  A    between atoms: _55  and  _57
REMARK   26  A    between atoms: _57  and  _58
REMARK   27  A    between atoms: _57  and  _60
REMARK   28  A    between atoms: _60  and  _61
REMARK   29  A    between atoms: _64  and  _66
REMARK   30  A    between atoms: _66  and  _67
REMARK   31  A    between atoms: _66  and  _69
REMARK   32  A    between atoms: _72  and  _74
REMARK   33  A    between atoms: _74  and  _75
REMARK   34  A    between atoms: _74  and  _77
REMARK   35  A    between atoms: _77  and  _78
REMARK   36  A    between atoms: _78  and  _79
REMARK   37  A    between atoms: _79  and  _80
REMARK   38  A    between atoms: _89  and  _91
REMARK   39  A    between atoms: _91  and  _92
REMARK   40  A    between atoms: _91  and  _94
REMARK   41  A    between atoms: _94  and  _95
REMARK   42  A    between atoms: _98  and  _100
REMARK   43  A    between atoms: _100  and  _101
REMARK   44  A    between atoms: _100  and  _103
REMARK   45  A    between atoms: _103  and  _104
REMARK   46  A    between atoms: _107  and  _109
REMARK   47  A    between atoms: _109  and  _110
REMARK   48  A    between atoms: _109  and  _112
REMARK   49  A    between atoms: _112  and  _113
REMARK   50  A    between atoms: _113  and  _114
REMARK   51  A    between atoms: _119  and  _121
REMARK   52  A    between atoms: _121  and  _122
REMARK   53  A    between atoms: _121  and  _124
REMARK   54  A    between atoms: _127  and  _129
REMARK   55  A    between atoms: _129  and  _130
REMARK   56  A    between atoms: _129  and  _132
REMARK   57  A    between atoms: _132  and  _133
REMARK   58  A    between atoms: _136  and  _138
REMARK   59  A    between atoms: _138  and  _139
REMARK   60  A    between atoms: _138  and  _141
REMARK   61  A    between atoms: _141  and  _142
REMARK   62  A    between atoms: _142  and  _143
REMARK   63  A    between atoms: _145  and  _147
REMARK   64  A    between atoms: _147  and  _148
REMARK   65  A    between atoms: _147  and  _150
REMARK   66  A    between atoms: _150  and  _151
REMARK   67  A    between atoms: _151  and  _152
REMARK   68  A    between atoms: _155  and  _157
REMARK   69  A    between atoms: _157  and  _158
REMARK   70  A    between atoms: _157  and  _160
REMARK   71  A    between atoms: _160  and  _161
REMARK   72  A    between atoms: _164  and  _166
REMARK   73  A    between atoms: _166  and  _167
REMARK   74  A    between atoms: _166  and  _169
REMARK   75  A    between atoms: _169  and  _170
REMARK   76  A    between atoms: _173  and  _175
REMARK   77  A    between atoms: _175  and  _176
REMARK   78  A    between atoms: _175  and  _178
REMARK   79  A    between atoms: _178  and  _179
REMARK   80  A    between atoms: _184  and  _186
REMARK   81  A    between atoms: _186  and  _187
REMARK   82  A    between atoms: _190  and  _192
REMARK   83  A    between atoms: _192  and  _193
REMARK   84  A    between atoms: _192  and  _195
REMARK   85  A    between atoms: _195  and  _196
REMARK   86  A    between atoms: _199  and  _201
REMARK   87  A    between atoms: _201  and  _202
REMARK   88  A    between atoms: _201  and  _204
REMARK   89  A    between atoms: _207  and  _209
REMARK   90  A    between atoms: _209  and  _210
REMARK   91  A    between atoms: _209  and  _212
REMARK   92  A    between atoms: _212  and  _213
REMARK   93  A    between atoms: _213  and  _214
REMARK   94  A    between atoms: _214  and  _215
REMARK   95  A    between atoms: _224  and  _226
REMARK   96  A    between atoms: _226  and  _227
REMARK   97  A    between atoms: _226  and  _229
REMARK   98  A    between atoms: _229  and  _230
REMARK   99  A    between atoms: _233  and  _235
REMARK  100  A    between atoms: _235  and  _236
REMARK  101  A    between atoms: _235  and  _238
REMARK  102  A    between atoms: _238  and  _239
REMARK  103  A    between atoms: _242  and  _244
REMARK  104  A    between atoms: _244  and  _245
REMARK  105  A    between atoms: _244  and  _247
REMARK  106  A    between atoms: _247  and  _248
REMARK  107  A    between atoms: _248  and  _249
REMARK  108  A    between atoms: _254  and  _256
REMARK  109  A    between atoms: _256  and  _257
REMARK  110  A    between atoms: _256  and  _259
REMARK  111  A    between atoms: _262  and  _264
REMARK  112  A    between atoms: _264  and  _265
REMARK  113  A    between atoms: _264  and  _267
REMARK  114  A    between atoms: _267  and  _268
REMARK  115  A    between atoms: _271  and  _273
REMARK  116  A    between atoms: _273  and  _274
REMARK  117  A    between atoms: _273  and  _276
REMARK  118  A    between atoms: _276  and  _277
REMARK  119  A    between atoms: _277  and  _278
REMARK  120  A    between atoms: _280  and  _282
REMARK  121  A    between atoms: _282  and  _283
REMARK  122  A    between atoms: _282  and  _285
REMARK  123  A    between atoms: _285  and  _286
REMARK  124  A    between atoms: _286  and  _287
REMARK  125  A    between atoms: _290  and  _292
REMARK  126  A    between atoms: _292  and  _293
REMARK  127  A    between atoms: _292  and  _295
REMARK  128  A    between atoms: _295  and  _296
REMARK  129  A    between atoms: _299  and  _301
REMARK  130  A    between atoms: _301  and  _302
REMARK  131  A    between atoms: _301  and  _304
REMARK  132  A    between atoms: _304  and  _305
REMARK  133  A    between atoms: _308  and  _310
REMARK  134  A    between atoms: _310  and  _311
REMARK  135  A    between atoms: _310  and  _313
REMARK  136  A    between atoms: _313  and  _314
REMARK  137  A    between atoms: _319  and  _321
REMARK  138  A    between atoms: _321  and  _322
REMARK  139  A    between atoms: _325  and  _327
REMARK  140  A    between atoms: _327  and  _328
REMARK  141  A    between atoms: _327  and  _330
REMARK  142  A    between atoms: _330  and  _331
REMARK  143  A    between atoms: _334  and  _336
REMARK  144  A    between atoms: _336  and  _337
REMARK  145  A    between atoms: _336  and  _339
REMARK  146  A    between atoms: _342  and  _344
REMARK  147  A    between atoms: _344  and  _345
REMARK  148  A    between atoms: _344  and  _347
REMARK  149  A    between atoms: _347  and  _348
REMARK  150  A    between atoms: _348  and  _349
REMARK  151  A    between atoms: _349  and  _350
REMARK  152  A    between atoms: _359  and  _361
REMARK  153  A    between atoms: _361  and  _362
REMARK  154  A    between atoms: _361  and  _364
REMARK  155  A    between atoms: _364  and  _365
REMARK  156  A    between atoms: _368  and  _370
REMARK  157  A    between atoms: _370  and  _371
REMARK  158  A    between atoms: _370  and  _373
REMARK  159  A    between atoms: _373  and  _374
REMARK  160  A    between atoms: _377  and  _379
REMARK  161  A    between atoms: _379  and  _380
REMARK  162  A    between atoms: _379  and  _382
REMARK  163  A    between atoms: _382  and  _383
REMARK  164  A    between atoms: _383  and  _384
REMARK  165  A    between atoms: _389  and  _391
REMARK  166  A    between atoms: _391  and  _392
REMARK  167  A    between atoms: _391  and  _394
REMARK  168  A    between atoms: _397  and  _399
REMARK  169  A    between atoms: _399  and  _400
REMARK  170  A    between atoms: _399  and  _402
REMARK  171  A    between atoms: _402  and  _403
REMARK  172  A    between atoms: _406  and  _408
REMARK  173  A    between atoms: _408  and  _409
REMARK  174  A    between atoms: _408  and  _411
REMARK  175  A    between atoms: _411  and  _412
REMARK  176  A    between atoms: _412  and  _413
REMARK  177  A    between atoms: _415  and  _417
REMARK  178  A    between atoms: _417  and  _418
REMARK  179  A    between atoms: _417  and  _420
REMARK  180  A    between atoms: _420  and  _421
REMARK  181  A    between atoms: _421  and  _422
REMARK  182  A    between atoms: _425  and  _427
REMARK  183  A    between atoms: _427  and  _428
REMARK  184  A    between atoms: _427  and  _430
REMARK  185  A    between atoms: _430  and  _431
REMARK  186  A    between atoms: _434  and  _436
REMARK  187  A    between atoms: _436  and  _437
REMARK  188  A    between atoms: _436  and  _439
REMARK  189  A    between atoms: _439  and  _440
REMARK  190  A    between atoms: _443  and  _445
REMARK  191  A    between atoms: _445  and  _446
REMARK  192  A    between atoms: _445  and  _448
REMARK  193  A    between atoms: _448  and  _449
REMARK  194  A    between atoms: _454  and  _456
REMARK  195  A    between atoms: _456  and  _457
REMARK  196  A    between atoms: _460  and  _462
REMARK  197  A    between atoms: _462  and  _463
REMARK  198  A    between atoms: _462  and  _465
REMARK  199  A    between atoms: _465  and  _466
REMARK  200  A    between atoms: _469  and  _471
REMARK  201  A    between atoms: _471  and  _472
REMARK  202  A    between atoms: _471  and  _474
REMARK  203  A    between atoms: _477  and  _479
REMARK  204  A    between atoms: _479  and  _480
REMARK  205  A    between atoms: _479  and  _482
REMARK  206  A    between atoms: _482  and  _483
REMARK  207  A    between atoms: _483  and  _484
REMARK  208  A    between atoms: _484  and  _485
REMARK  209  A    between atoms: _494  and  _496
REMARK  210  A    between atoms: _496  and  _497
REMARK  211  A    between atoms: _496  and  _499
REMARK  212  A    between atoms: _499  and  _500
REMARK  213  A    between atoms: _503  and  _505
REMARK  214  A    between atoms: _505  and  _506
REMARK  215  A    between atoms: _505  and  _508
REMARK  216  A    between atoms: _508  and  _509
REMARK  217  A    between atoms: _512  and  _514
REMARK  218  A    between atoms: _514  and  _515
REMARK  219  A    between atoms: _514  and  _517
REMARK  220  A    between atoms: _517  and  _518
REMARK  221  A    between atoms: _518  and  _519
REMARK  222  A    between atoms: _524  and  _526
REMARK  223  A    between atoms: _526  and  _527
REMARK  224  A    between atoms: _526  and  _529
REMARK  225  A    between atoms: _532  and  _534
REMARK  226  A    between atoms: _534  and  _535
REMARK  227  A    between atoms: _534  and  _537
REMARK  228  A    between atoms: _537  and  _538
REMARK  229  A    between atoms: _541  and  _543
REMARK  230  A    between atoms: _543  and  _544
REMARK  231  A    between atoms: _543  and  _546
REMARK  232  A    between atoms: _546  and  _547
REMARK  233  A    between atoms: _547  and  _548
REMARK  234  A    between atoms: _550  and  _552
REMARK  235  A    between atoms: _552  and  _553
REMARK  236  A    between atoms: _552  and  _555
REMARK  237  A    between atoms: _555  and  _556
REMARK  238  A    between atoms: _556  and  _557
REMARK  239  A    between atoms: _560  and  _562
REMARK  240  A    between atoms: _562  and  _563
REMARK  241  A    between atoms: _562  and  _565
REMARK  242  A    between atoms: _565  and  _566
REMARK  243  A    between atoms: _569  and  _571
REMARK  244  A    between atoms: _571  and  _572
REMARK  245  A    between atoms: _571  and  _574
REMARK  246  A    between atoms: _574  and  _575
REMARK  247  A    between atoms: _575  and  _576
REMARK  248  A    between atoms: _581  and  _583
REMARK  249  A    between atoms: _583  and  _584
REMARK  250  A    between atoms: _583  and  _586
REMARK  251  A    between atoms: _586  and  _587
REMARK  252  A    between atoms: _590  and  _592
REMARK  253  A    between atoms: _592  and  _593
REMARK  254  A    between atoms: _592  and  _595
REMARK  255  A    between atoms: _595  and  _596
REMARK  256  A    between atoms: _601  and  _603
REMARK  257  A    between atoms: _603  and  _604
REMARK  258  A    between atoms: _607  and  _609
REMARK  259  A    between atoms: _609  and  _610
REMARK  260  A    between atoms: _609  and  _612
REMARK  261  A    between atoms: _612  and  _613
REMARK  262  A    between atoms: _616  and  _618
REMARK  263  A    between atoms: _618  and  _619
REMARK  264  A    between atoms: _618  and  _621
REMARK  265  A    between atoms: _624  and  _626
REMARK  266  A    between atoms: _626  and  _627
REMARK  267  A    between atoms: _626  and  _629
REMARK  268  A    between atoms: _629  and  _630
REMARK  269  A    between atoms: _630  and  _631
REMARK  270  A    between atoms: _631  and  _632
REMARK  271  A    between atoms: _641  and  _643
REMARK  272  A    between atoms: _643  and  _644
REMARK  273  A    between atoms: _643  and  _646
REMARK  274  A    between atoms: _646  and  _647
REMARK  275  A    between atoms: _650  and  _652
REMARK  276  A    between atoms: _652  and  _653
REMARK  277  A    between atoms: _652  and  _655
REMARK  278  A    between atoms: _655  and  _656
REMARK  279  A    between atoms: _659  and  _661
REMARK  280  A    between atoms: _661  and  _662
REMARK  281  A    between atoms: _661  and  _664
REMARK  282  A    between atoms: _664  and  _665
REMARK  283  A    between atoms: _665  and  _666
REMARK  284  A    between atoms: _666  and  _667
REMARK  285  A    between atoms: _676  and  _678
REMARK  286  A    between atoms: _678  and  _679
REMARK  287  A    between atoms: _678  and  _681
REMARK  288  A    between atoms: _681  and  _682
REMARK  289  A    between atoms: _682  and  _683
REMARK  290  A    between atoms: _688  and  _690
REMARK  291  A    between atoms: _690  and  _691
REMARK  292  A    between atoms: _690  and  _693
REMARK  293  A    between atoms: _696  and  _698
REMARK  294  A    between atoms: _698  and  _699
REMARK  295  A    between atoms: _698  and  _701
REMARK  296  A    between atoms: _701  and  _702
REMARK                            x       y       z     vdW  Elec       q    Type
REMARK                         _______ _______ _______ _____ _____    ______ ____
ROOT
ATOM      1  C   LEU A   1       5.976   2.595  15.908  0.00  0.00    +0.238 C 
ATOM      2  O   LEU A   1       5.300   2.417  16.920  0.00  0.00    -0.274 OA
ATOM      3  N   LEU A   2       6.064   1.702  14.933  0.00  0.00    -0.298 N 
ATOM      4  H   LEU A   2       6.669   1.905  14.111  0.00  0.00    +0.150 HD
ENDROOT
BRANCH   1   5
ATOM      5  CA  LEU A   1       6.788   3.867  15.705  0.00  0.00    +0.145 C 
BRANCH   5   6
ATOM      6  N   LEU A   1       8.162   3.520  15.370  0.00  0.00    -0.238 NA
ATOM      7  H   LEU A   1       8.539   3.775  14.435  0.00  0.00    +0.142 HD
ENDBRANCH   5   6
BRANCH   5   8
ATOM      8  CB  LEU A   1       6.173   4.701  14.579  0.00  0.00    +0.026 C 
BRANCH   8   9
ATOM      9  CG  LEU A   1       6.713   6.128  14.526  0.00  0.00    +0.002 C 
ATOM     10  CD2 LEU A   1       6.166   6.904  15.725  0.00  0.00    +0.000 C 
ATOM     11  CD1 LEU A   1       6.329   6.794  13.217  0.00  0.00    +0.000 C 
ENDBRANCH   8   9
ENDBRANCH   5   8
ENDBRANCH   1   5
BRANCH   3  12
ATOM     12  CA  LEU A   2       5.337   0.449  14.985  0.00  0.00    +0.137 C 
BRANCH  12  13
ATOM     13  C   LEU A   2       5.704  -0.335  16.235  0.00  0.00    +0.227 C 
ATOM     14  O   LEU A   2       4.848  -0.947  16.863  0.00  0.00    -0.286 OA
ENDBRANCH  12  13
BRANCH  12  15
ATOM     15  CB  LEU A   2       5.654  -0.372  13.740  0.00  0.00    +0.028 C 
BRANCH  15  16
ATOM     16  CG  LEU A   2       4.987  -1.733  13.572  0.00  0.00    +0.002 C 
ATOM     17  CD2 LEU A   2       3.463  -1.597  13.601  0.00  0.00    +0.000 C 
ATOM     18  CD1 LEU A   2       5.444  -2.314  12.238  0.00  0.00    +0.000 C 
ENDBRANCH  15  16
ENDBRANCH  12  15
ENDBRANCH   3  12
TORSDOF 8
REMARK  Name = ../refined-set-2016/3v2p/3v2p_pocket.pdb
REMARK  296 active torsions:
REMARK  status: ('A' for Active; 'I' for Inactive)
REMARK    1  A    between atoms: _1  and  _3
REMARK    2  A    between atoms: _3  and  _4
REMARK    3  A    between atoms: _3  and  _6
REMARK    4  A    between atoms: _6  and  _7
REMARK    5  A    between atoms: _7  and  _8
REMARK    6  A    between atoms: _10  and  _12
REMARK    7  A    between atoms: _12  and  _13
REMARK    8  A    between atoms: _12  and  _15
REMARK    9  A    between atoms: _15  and  _16
REMARK   10  A    between atoms: _16  and  _17
REMARK   11  A    between atoms: _20  and  _22
REMARK   12  A    between atoms: _22  and  _23
REMARK   13  A    between atoms: _22  and  _25
REMARK   14  A    between atoms: _25  and  _26
REMARK   15  A    between atoms: _29  and  _31
REMARK   16  A    between atoms: _31  and  _32
REMARK   17  A    between atoms: _31  and  _34
REMARK   18  A    between atoms: _34  and  _35
REMARK   19  A    between atoms: _38  and  _40
REMARK   20  A    between atoms: _40  and  _41
REMARK   21  A    between atoms: _40  and  _43
REMARK   22  A    between atoms: _43  and  _44
REMARK   23  A    between atoms: _49  and  _51
REMARK   24  A    between atoms: _51  and  _52
REMARK   25  A    between atoms: _55  and  _57
REMARK   26  A    between atoms: _57  and  _58
REMARK   27  A    between atoms: _57  and  _60
REMARK   28  A    between atoms: _60  and  _61
REMARK   29  A    between atoms: _64  and  _66
REMARK   30  A    between atoms: _66  and  _67
REMARK   31  A    between atoms: _66  and  _69
REMARK   32  A    between atoms: _72  and  _74
REMARK   33  A    between atoms: _74  and  _75
REMARK   34  A    between atoms: _74  and  _77
REMARK   35  A    between atoms: _77  and  _78
REMARK   36  A    between atoms: _78  and  _79
REMARK   37  A    between atoms: _79  and  _80
REMARK   38  A    between atoms: _89  and  _91
REMARK   39  A    between atoms: _91  and  _92
REMARK   40  A    between atoms: _91  and  _94
REMARK   41  A    between atoms: _94  and  _95
REMARK   42  A    between atoms: _98  and  _100
REMARK   43  A    between atoms: _100  and  _101
REMARK   44  A    between atoms: _100  and  _103
REMARK   45  A    between atoms: _103  and  _104
REMARK   46  A    between atoms: _107  and  _109
REMARK   47  A    between atoms: _109  and  _110
REMARK   48  A    between atoms: _109  and  _112
REMARK   49  A    between atoms: _112  and  _113
REMARK   50  A    between atoms: _113  and  _114
REMARK   51  A    between atoms: _119  and  _121
REMARK   52  A    between atoms: _121  and  _122
REMARK   53  A    between atoms: _121  and  _124
REMARK   54  A    between atoms: _127  and  _129
REMARK   55  A    between atoms: _129  and  _130
REMARK   56  A    between atoms: _129  and  _132
REMARK   57  A    between atoms: _132  and  _133
REMARK   58  A    between atoms: _136  and  _138
REMARK   59  A    between atoms: _138  and  _139
REMARK   60  A    between atoms: _138  and  _141
REMARK   61  A    between atoms: _141  and  _142
REMARK   62  A    between atoms: _142  and  _143
REMARK   63  A    between atoms: _145  and  _147
REMARK   64  A    between atoms: _147  and  _148
REMARK   65  A    between atoms: _147  and  _150
REMARK   66  A    between atoms: _150  and  _151
REMARK   67  A    between atoms: _151  and  _152
REMARK   68  A    between atoms: _155  and  _157
REMARK   69  A    between atoms: _157  and  _158
REMARK   70  A    between atoms: _157  and  _160
REMARK   71  A    between atoms: _160  and  _161
REMARK   72  A    between atoms: _164  and  _166
REMARK   73  A    between atoms: _166  and  _167
REMARK   74  A    between atoms: _166  and  _169
REMARK   75  A    between atoms: _169  and  _170
REMARK   76  A    between atoms: _173  and  _175
REMARK   77  A    between atoms: _175  and  _176
REMARK   78  A    between atoms: _175  and  _178
REMARK   79  A    between atoms: _178  and  _179
REMARK   80  A    between atoms: _184  and  _186
REMARK   81  A    between atoms: _186  and  _187
REMARK   82  A    between atoms: _190  and  _192
REMARK   83  A    between atoms: _192  and  _193
REMARK   84  A    between atoms: _192  and  _195
REMARK   85  A    between atoms: _195  and  _196
REMARK   86  A    between atoms: _199  and  _201
REMARK   87  A    between atoms: _201  and  _202
REMARK   88  A    between atoms: _201  and  _204
REMARK   89  A    between atoms: _207  and  _209
REMARK   90  A    between atoms: _209  and  _210
REMARK   91  A    between atoms: _209  and  _212
REMARK   92  A    between atoms: _212  and  _213
REMARK   93  A    between atoms: _213  and  _214
REMARK   94  A    between atoms: _214  and  _215
REMARK   95  A    between atoms: _224  and  _226
REMARK   96  A    between atoms: _226  and  _227
REMARK   97  A    between atoms: _226  and  _229
REMARK   98  A    between atoms: _229  and  _230
REMARK   99  A    between atoms: _233  and  _235
REMARK  100  A    between atoms: _235  and  _236
REMARK  101  A    between atoms: _235  and  _238
REMARK  102  A    between atoms: _238  and  _239
REMARK  103  A    between atoms: _242  and  _244
REMARK  104  A    between atoms: _244  and  _245
REMARK  105  A    between atoms: _244  and  _247
REMARK  106  A    between atoms: _247  and  _248
REMARK  107  A    between atoms: _248  and  _249
REMARK  108  A    between atoms: _254  and  _256
REMARK  109  A    between atoms: _256  and  _257
REMARK  110  A    between atoms: _256  and  _259
REMARK  111  A    between atoms: _262  and  _264
REMARK  112  A    between atoms: _264  and  _265
REMARK  113  A    between atoms: _264  and  _267
REMARK  114  A    between atoms: _267  and  _268
REMARK  115  A    between atoms: _271  and  _273
REMARK  116  A    between atoms: _273  and  _274
REMARK  117  A    between atoms: _273  and  _276
REMARK  118  A    between atoms: _276  and  _277
REMARK  119  A    between atoms: _277  and  _278
REMARK  120  A    between atoms: _280  and  _282
REMARK  121  A    between atoms: _282  and  _283
REMARK  122  A    between atoms: _282  and  _285
REMARK  123  A    between atoms: _285  and  _286
REMARK  124  A    between atoms: _286  and  _287
REMARK  125  A    between atoms: _290  and  _292
REMARK  126  A    between atoms: _292  and  _293
REMARK  127  A    between atoms: _292  and  _295
REMARK  128  A    between atoms: _295  and  _296
REMARK  129  A    between atoms: _299  and  _301
REMARK  130  A    between atoms: _301  and  _302
REMARK  131  A    between atoms: _301  and  _304
REMARK  132  A    between atoms: _304  and  _305
REMARK  133  A    between atoms: _308  and  _310
REMARK  134  A    between atoms: _310  and  _311
REMARK  135  A    between atoms: _310  and  _313
REMARK  136  A    between atoms: _313  and  _314
REMARK  137  A    between atoms: _319  and  _321
REMARK  138  A    between atoms: _321  and  _322
REMARK  139  A    between atoms: _325  and  _327
REMARK  140  A    between atoms: _327  and  _328
REMARK  141  A    between atoms: _327  and  _330
REMARK  142  A    between atoms: _330  and  _331
REMARK  143  A    between atoms: _334  and  _336
REMARK  144  A    between atoms: _336  and  _337
REMARK  145  A    between atoms: _336  and  _339
REMARK  146  A    between atoms: _342  and  _344
REMARK  147  A    between atoms: _344  and  _345
REMARK  148  A    between atoms: _344  and  _347
REMARK  149  A    between atoms: _347  and  _348
REMARK  150  A    between atoms: _348  and  _349
REMARK  151  A    between atoms: _349  and  _350
REMARK  152  A    between atoms: _359  and  _361
REMARK  153  A    between atoms: _361  and  _362
REMARK  154  A    between atoms: _361  and  _364
REMARK  155  A    between atoms: _364  and  _365
REMARK  156  A    between atoms: _368  and  _370
REMARK  157  A    between atoms: _370  and  _371
REMARK  158  A    between atoms: _370  and  _373
REMARK  159  A    between atoms: _373  and  _374
REMARK  160  A    between atoms: _377  and  _379
REMARK  161  A    between atoms: _379  and  _380
REMARK  162  A    between atoms: _379  and  _382
REMARK  163  A    between atoms: _382  and  _383
REMARK  164  A    between atoms: _383  and  _384
REMARK  165  A    between atoms: _389  and  _391
REMARK  166  A    between atoms: _391  and  _392
REMARK  167  A    between atoms: _391  and  _394
REMARK  168  A    between atoms: _397  and  _399
REMARK  169  A    between atoms: _399  and  _400
REMARK  170  A    between atoms: _399  and  _402
REMARK  171  A    between atoms: _402  and  _403
REMARK  172  A    between atoms: _406  and  _408
REMARK  173  A    between atoms: _408  and  _409
REMARK  174  A    between atoms: _408  and  _411
REMARK  175  A    between atoms: _411  and  _412
REMARK  176  A    between atoms: _412  and  _413
REMARK  177  A    between atoms: _415  and  _417
REMARK  178  A    between atoms: _417  and  _418
REMARK  179  A    between atoms: _417  and  _420
REMARK  180  A    between atoms: _420  and  _421
REMARK  181  A    between atoms: _421  and  _422
REMARK  182  A    between atoms: _425  and  _427
REMARK  183  A    between atoms: _427  and  _428
REMARK  184  A    between atoms: _427  and  _430
REMARK  185  A    between atoms: _430  and  _431
REMARK  186  A    between atoms: _434  and  _436
REMARK  187  A    between atoms: _436  and  _437
REMARK  188  A    between atoms: _436  and  _439
REMARK  189  A    between atoms: _439  and  _440
REMARK  190  A    between atoms: _443  and  _445
REMARK  191  A    between atoms: _445  and  _446
REMARK  192  A    between atoms: _445  and  _448
REMARK  193  A    between atoms: _448  and  _449
REMARK  194  A    between atoms: _454  and  _456
REMARK  195  A    between atoms: _456  and  _457
REMARK  196  A    between atoms: _460  and  _462
REMARK  197  A    between atoms: _462  and  _463
REMARK  198  A    between atoms: _462  and  _465
REMARK  199  A    between atoms: _465  and  _466
REMARK  200  A    between atoms: _469  and  _471
REMARK  201  A    between atoms: _471  and  _472
REMARK  202  A    between atoms: _471  and  _474
REMARK  203  A    between atoms: _477  and  _479
REMARK  204  A    between atoms: _479  and  _480
REMARK  205  A    between atoms: _479  and  _482
REMARK  206  A    between atoms: _482  and  _483
REMARK  207  A    between atoms: _483  and  _484
REMARK  208  A    between atoms: _484  and  _485
REMARK  209  A    between atoms: _494  and  _496
REMARK  210  A    between atoms: _496  and  _497
REMARK  211  A    between atoms: _496  and  _499
REMARK  212  A    between atoms: _499  and  _500
REMARK  213  A    between atoms: _503  and  _505
REMARK  214  A    between atoms: _505  and  _506
REMARK  215  A    between atoms: _505  and  _508
REMARK  216  A    between atoms: _508  and  _509
REMARK  217  A    between atoms: _512  and  _514
REMARK  218  A    between atoms: _514  and  _515
REMARK  219  A    between atoms: _514  and  _517
REMARK  220  A    between atoms: _517  and  _518
REMARK  221  A    between atoms: _518  and  _519
REMARK  222  A    between atoms: _524  and  _526
REMARK  223  A    between atoms: _526  and  _527
REMARK  224  A    between atoms: _526  and  _529
REMARK  225  A    between atoms: _532  and  _534
REMARK  226  A    between atoms: _534  and  _535
REMARK  227  A    between atoms: _534  and  _537
REMARK  228  A    between atoms: _537  and  _538
REMARK  229  A    between atoms: _541  and  _543
REMARK  230  A    between atoms: _543  and  _544
REMARK  231  A    between atoms: _543  and  _546
REMARK  232  A    between atoms: _546  and  _547
REMARK  233  A    between atoms: _547  and  _548
REMARK  234  A    between atoms: _550  and  _552
REMARK  235  A    between atoms: _552  and  _553
REMARK  236  A    between atoms: _552  and  _555
REMARK  237  A    between atoms: _555  and  _556
REMARK  238  A    between atoms: _556  and  _557
REMARK  239  A    between atoms: _560  and  _562
REMARK  240  A    between atoms: _562  and  _563
REMARK  241  A    between atoms: _562  and  _565
REMARK  242  A    between atoms: _565  and  _566
REMARK  243  A    between atoms: _569  and  _571
REMARK  244  A    between atoms: _571  and  _572
REMARK  245  A    between atoms: _571  and  _574
REMARK  246  A    between atoms: _574  and  _575
REMARK  247  A    between atoms: _575  and  _576
REMARK  248  A    between atoms: _581  and  _583
REMARK  249  A    between atoms: _583  and  _584
REMARK  250  A    between atoms: _583  and  _586
REMARK  251  A    between atoms: _586  and  _587
REMARK  252  A    between atoms: _590  and  _592
REMARK  253  A    between atoms: _592  and  _593
REMARK  254  A    between atoms: _592  and  _595
REMARK  255  A    between atoms: _595  and  _596
REMARK  256  A    between atoms: _601  and  _603
REMARK  257  A    between atoms: _603  and  _604
REMARK  258  A    between atoms: _607  and  _609
REMARK  259  A    between atoms: _609  and  _610
REMARK  260  A    between atoms: _609  and  _612
REMARK  261  A    between atoms: _612  and  _613
REMARK  262  A    between atoms: _616  and  _618
REMARK  263  A    between atoms: _618  and  _619
REMARK  264  A    between atoms: _618  and  _621
REMARK  265  A    between atoms: _624  and  _626
REMARK  266  A    between atoms: _626  and  _627
REMARK  267  A    between atoms: _626  and  _629
REMARK  268  A    between atoms: _629  and  _630
REMARK  269  A    between atoms: _630  and  _631
REMARK  270  A    between atoms: _631  and  _632
REMARK  271  A    between atoms: _641  and  _643
REMARK  272  A    between atoms: _643  and  _644
REMARK  273  A    between atoms: _643  and  _646
REMARK  274  A    between atoms: _646  and  _647
REMARK  275  A    between atoms: _650  and  _652
REMARK  276  A    between atoms: _652  and  _653
REMARK  277  A    between atoms: _652  and  _655
REMARK  278  A    between atoms: _655  and  _656
REMARK  279  A    between atoms: _659  and  _661
REMARK  280  A    between atoms: _661  and  _662
REMARK  281  A    between atoms: _661  and  _664
REMARK  282  A    between atoms: _664  and  _665
REMARK  283  A    between atoms: _665  and  _666
REMARK  284  A    between atoms: _666  and  _667
REMARK  285  A    between atoms: _676  and  _678
REMARK  286  A    between atoms: _678  and  _679
REMARK  287  A    between atoms: _678  and  _681
REMARK  288  A    between atoms: _681  and  _682
REMARK  289  A    between atoms: _682  and  _683
REMARK  290  A    between atoms: _688  and  _690
REMARK  291  A    between atoms: _690  and  _691
REMARK  292  A    between atoms: _690  and  _693
REMARK  293  A    between atoms: _696  and  _698
REMARK  294  A    between atoms: _698  and  _699
REMARK  295  A    between atoms: _698  and  _701
REMARK  296  A    between atoms: _701  and  _702
REMARK                            x       y       z     vdW  Elec       q    Type
REMARK                         _______ _______ _______ _____ _____    ______ ____
ROOT
ATOM      1  CA  GLN A   1       2.516   0.905  18.960  0.00  0.00    +0.145 C 
ENDROOT
BRANCH   1   2
ATOM      2  C   GLN A   1       2.167  -0.498  19.447  0.00  0.00    +0.238 C 
ATOM      3  O   GLN A   1       1.174  -0.682  20.150  0.00  0.00    -0.274 OA
ATOM      4  N   VAL A   2       2.971  -1.492  19.079  0.00  0.00    -0.298 N 
ATOM      5  H   VAL A   2       3.795  -1.302  18.474  0.00  0.00    +0.150 HD
BRANCH   4   6
ATOM      6  CA  VAL A   2       2.688  -2.852  19.531  0.00  0.00    +0.137 C 
BRANCH   6   7
ATOM      7  CB  VAL A   2       3.733  -3.871  19.015  0.00  0.00    +0.026 C 
ATOM      8  CG2 VAL A   2       3.377  -5.261  19.514  0.00  0.00    +0.002 C 
ATOM      9  CG1 VAL A   2       3.773  -3.863  17.492  0.00  0.00    +0.002 C 
ENDBRANCH   6   7
BRANCH   6  10
ATOM     10  C   VAL A   2       2.682  -2.874  21.064  0.00  0.00    +0.227 C 
ATOM     11  O   VAL A   2       1.879  -3.566  21.679  0.00  0.00    -0.286 OA
ENDBRANCH   6  10
ENDBRANCH   4   6
ENDBRANCH   1   2
BRANCH   1  12
ATOM     12  N   GLN A   1       3.939   1.184  19.097  0.00  0.00    -0.238 NA
ATOM     13  H   GLN A   1       4.491   1.420  18.248  0.00  0.00    +0.142 HD
ENDBRANCH   1  12
BRANCH   1  14
ATOM     14  CB  GLN A   1       2.093   1.085  17.499  0.00  0.00    +0.036 C 
BRANCH  14  15
ATOM     15  CG  GLN A   1       0.607   0.919  17.240  0.00  0.00    +0.087 C 
BRANCH  15  16
ATOM     16  CD  GLN A   1       0.219   1.326  15.830  0.00  0.00    +0.219 C 
ATOM     17  OE1 GLN A   1      -0.012   2.505  15.551  0.00  0.00    -0.275 OA
ATOM     18  NE2 GLN A   1       0.164   0.351  14.926  0.00  0.00    -0.329 N 
ATOM     19 HE21 GLN A   1       0.367  -0.630  15.206  0.00  0.00    +0.145 HD
ATOM     20 HE22 GLN A   1      -0.082   0.570  13.939  0.00  0.00    +0.145 HD
ENDBRANCH  15  16
ENDBRANCH  14  15
ENDBRANCH   1  14
TORSDOF 8
REMARK  Name = ../refined-set-2016/3v2p/3v2p_pocket.pdb
REMARK  296 active torsions:
REMARK  status: ('A' for Active; 'I' for Inactive)
REMARK    1  A    between atoms: _1  and  _3
REMARK    2  A    between atoms: _3  and  _4
REMARK    3  A    between atoms: _3  and  _6
REMARK    4  A    between atoms: _6  and  _7
REMARK    5  A    between atoms: _7  and  _8
REMARK    6  A    between atoms: _10  and  _12
REMARK    7  A    between atoms: _12  and  _13
REMARK    8  A    between atoms: _12  and  _15
REMARK    9  A    between atoms: _15  and  _16
REMARK   10  A    between atoms: _16  and  _17
REMARK   11  A    between atoms: _20  and  _22
REMARK   12  A    between atoms: _22  and  _23
REMARK   13  A    between atoms: _22  and  _25
REMARK   14  A    between atoms: _25  and  _26
REMARK   15  A    between atoms: _29  and  _31
REMARK   16  A    between atoms: _31  and  _32
REMARK   17  A    between atoms: _31  and  _34
REMARK   18  A    between atoms: _34  and  _35
REMARK   19  A    between atoms: _38  and  _40
REMARK   20  A    between atoms: _40  and  _41
REMARK   21  A    between atoms: _40  and  _43
REMARK   22  A    between atoms: _43  and  _44
REMARK   23  A    between atoms: _49  and  _51
REMARK   24  A    between atoms: _51  and  _52
REMARK   25  A    between atoms: _55  and  _57
REMARK   26  A    between atoms: _57  and  _58
REMARK   27  A    between atoms: _57  and  _60
REMARK   28  A    between atoms: _60  and  _61
REMARK   29  A    between atoms: _64  and  _66
REMARK   30  A    between atoms: _66  and  _67
REMARK   31  A    between atoms: _66  and  _69
REMARK   32  A    between atoms: _72  and  _74
REMARK   33  A    between atoms: _74  and  _75
REMARK   34  A    between atoms: _74  and  _77
REMARK   35  A    between atoms: _77  and  _78
REMARK   36  A    between atoms: _78  and  _79
REMARK   37  A    between atoms: _79  and  _80
REMARK   38  A    between atoms: _89  and  _91
REMARK   39  A    between atoms: _91  and  _92
REMARK   40  A    between atoms: _91  and  _94
REMARK   41  A    between atoms: _94  and  _95
REMARK   42  A    between atoms: _98  and  _100
REMARK   43  A    between atoms: _100  and  _101
REMARK   44  A    between atoms: _100  and  _103
REMARK   45  A    between atoms: _103  and  _104
REMARK   46  A    between atoms: _107  and  _109
REMARK   47  A    between atoms: _109  and  _110
REMARK   48  A    between atoms: _109  and  _112
REMARK   49  A    between atoms: _112  and  _113
REMARK   50  A    between atoms: _113  and  _114
REMARK   51  A    between atoms: _119  and  _121
REMARK   52  A    between atoms: _121  and  _122
REMARK   53  A    between atoms: _121  and  _124
REMARK   54  A    between atoms: _127  and  _129
REMARK   55  A    between atoms: _129  and  _130
REMARK   56  A    between atoms: _129  and  _132
REMARK   57  A    between atoms: _132  and  _133
REMARK   58  A    between atoms: _136  and  _138
REMARK   59  A    between atoms: _138  and  _139
REMARK   60  A    between atoms: _138  and  _141
REMARK   61  A    between atoms: _141  and  _142
REMARK   62  A    between atoms: _142  and  _143
REMARK   63  A    between atoms: _145  and  _147
REMARK   64  A    between atoms: _147  and  _148
REMARK   65  A    between atoms: _147  and  _150
REMARK   66  A    between atoms: _150  and  _151
REMARK   67  A    between atoms: _151  and  _152
REMARK   68  A    between atoms: _155  and  _157
REMARK   69  A    between atoms: _157  and  _158
REMARK   70  A    between atoms: _157  and  _160
REMARK   71  A    between atoms: _160  and  _161
REMARK   72  A    between atoms: _164  and  _166
REMARK   73  A    between atoms: _166  and  _167
REMARK   74  A    between atoms: _166  and  _169
REMARK   75  A    between atoms: _169  and  _170
REMARK   76  A    between atoms: _173  and  _175
REMARK   77  A    between atoms: _175  and  _176
REMARK   78  A    between atoms: _175  and  _178
REMARK   79  A    between atoms: _178  and  _179
REMARK   80  A    between atoms: _184  and  _186
REMARK   81  A    between atoms: _186  and  _187
REMARK   82  A    between atoms: _190  and  _192
REMARK   83  A    between atoms: _192  and  _193
REMARK   84  A    between atoms: _192  and  _195
REMARK   85  A    between atoms: _195  and  _196
REMARK   86  A    between atoms: _199  and  _201
REMARK   87  A    between atoms: _201  and  _202
REMARK   88  A    between atoms: _201  and  _204
REMARK   89  A    between atoms: _207  and  _209
REMARK   90  A    between atoms: _209  and  _210
REMARK   91  A    between atoms: _209  and  _212
REMARK   92  A    between atoms: _212  and  _213
REMARK   93  A    between atoms: _213  and  _214
REMARK   94  A    between atoms: _214  and  _215
REMARK   95  A    between atoms: _224  and  _226
REMARK   96  A    between atoms: _226  and  _227
REMARK   97  A    between atoms: _226  and  _229
REMARK   98  A    between atoms: _229  and  _230
REMARK   99  A    between atoms: _233  and  _235
REMARK  100  A    between atoms: _235  and  _236
REMARK  101  A    between atoms: _235  and  _238
REMARK  102  A    between atoms: _238  and  _239
REMARK  103  A    between atoms: _242  and  _244
REMARK  104  A    between atoms: _244  and  _245
REMARK  105  A    between atoms: _244  and  _247
REMARK  106  A    between atoms: _247  and  _248
REMARK  107  A    between atoms: _248  and  _249
REMARK  108  A    between atoms: _254  and  _256
REMARK  109  A    between atoms: _256  and  _257
REMARK  110  A    between atoms: _256  and  _259
REMARK  111  A    between atoms: _262  and  _264
REMARK  112  A    between atoms: _264  and  _265
REMARK  113  A    between atoms: _264  and  _267
REMARK  114  A    between atoms: _267  and  _268
REMARK  115  A    between atoms: _271  and  _273
REMARK  116  A    between atoms: _273  and  _274
REMARK  117  A    between atoms: _273  and  _276
REMARK  118  A    between atoms: _276  and  _277
REMARK  119  A    between atoms: _277  and  _278
REMARK  120  A    between atoms: _280  and  _282
REMARK  121  A    between atoms: _282  and  _283
REMARK  122  A    between atoms: _282  and  _285
REMARK  123  A    between atoms: _285  and  _286
REMARK  124  A    between atoms: _286  and  _287
REMARK  125  A    between atoms: _290  and  _292
REMARK  126  A    between atoms: _292  and  _293
REMARK  127  A    between atoms: _292  and  _295
REMARK  128  A    between atoms: _295  and  _296
REMARK  129  A    between atoms: _299  and  _301
REMARK  130  A    between atoms: _301  and  _302
REMARK  131  A    between atoms: _301  and  _304
REMARK  132  A    between atoms: _304  and  _305
REMARK  133  A    between atoms: _308  and  _310
REMARK  134  A    between atoms: _310  and  _311
REMARK  135  A    between atoms: _310  and  _313
REMARK  136  A    between atoms: _313  and  _314
REMARK  137  A    between atoms: _319  and  _321
REMARK  138  A    between atoms: _321  and  _322
REMARK  139  A    between atoms: _325  and  _327
REMARK  140  A    between atoms: _327  and  _328
REMARK  141  A    between atoms: _327  and  _330
REMARK  142  A    between atoms: _330  and  _331
REMARK  143  A    between atoms: _334  and  _336
REMARK  144  A    between atoms: _336  and  _337
REMARK  145  A    between atoms: _336  and  _339
REMARK  146  A    between atoms: _342  and  _344
REMARK  147  A    between atoms: _344  and  _345
REMARK  148  A    between atoms: _344  and  _347
REMARK  149  A    between atoms: _347  and  _348
REMARK  150  A    between atoms: _348  and  _349
REMARK  151  A    between atoms: _349  and  _350
REMARK  152  A    between atoms: _359  and  _361
REMARK  153  A    between atoms: _361  and  _362
REMARK  154  A    between atoms: _361  and  _364
REMARK  155  A    between atoms: _364  and  _365
REMARK  156  A    between atoms: _368  and  _370
REMARK  157  A    between atoms: _370  and  _371
REMARK  158  A    between atoms: _370  and  _373
REMARK  159  A    between atoms: _373  and  _374
REMARK  160  A    between atoms: _377  and  _379
REMARK  161  A    between atoms: _379  and  _380
REMARK  162  A    between atoms: _379  and  _382
REMARK  163  A    between atoms: _382  and  _383
REMARK  164  A    between atoms: _383  and  _384
REMARK  165  A    between atoms: _389  and  _391
REMARK  166  A    between atoms: _391  and  _392
REMARK  167  A    between atoms: _391  and  _394
REMARK  168  A    between atoms: _397  and  _399
REMARK  169  A    between atoms: _399  and  _400
REMARK  170  A    between atoms: _399  and  _402
REMARK  171  A    between atoms: _402  and  _403
REMARK  172  A    between atoms: _406  and  _408
REMARK  173  A    between atoms: _408  and  _409
REMARK  174  A    between atoms: _408  and  _411
REMARK  175  A    between atoms: _411  and  _412
REMARK  176  A    between atoms: _412  and  _413
REMARK  177  A    between atoms: _415  and  _417
REMARK  178  A    between atoms: _417  and  _418
REMARK  179  A    between atoms: _417  and  _420
REMARK  180  A    between atoms: _420  and  _421
REMARK  181  A    between atoms: _421  and  _422
REMARK  182  A    between atoms: _425  and  _427
REMARK  183  A    between atoms: _427  and  _428
REMARK  184  A    between atoms: _427  and  _430
REMARK  185  A    between atoms: _430  and  _431
REMARK  186  A    between atoms: _434  and  _436
REMARK  187  A    between atoms: _436  and  _437
REMARK  188  A    between atoms: _436  and  _439
REMARK  189  A    between atoms: _439  and  _440
REMARK  190  A    between atoms: _443  and  _445
REMARK  191  A    between atoms: _445  and  _446
REMARK  192  A    between atoms: _445  and  _448
REMARK  193  A    between atoms: _448  and  _449
REMARK  194  A    between atoms: _454  and  _456
REMARK  195  A    between atoms: _456  and  _457
REMARK  196  A    between atoms: _460  and  _462
REMARK  197  A    between atoms: _462  and  _463
REMARK  198  A    between atoms: _462  and  _465
REMARK  199  A    between atoms: _465  and  _466
REMARK  200  A    between atoms: _469  and  _471
REMARK  201  A    between atoms: _471  and  _472
REMARK  202  A    between atoms: _471  and  _474
REMARK  203  A    between atoms: _477  and  _479
REMARK  204  A    between atoms: _479  and  _480
REMARK  205  A    between atoms: _479  and  _482
REMARK  206  A    between atoms: _482  and  _483
REMARK  207  A    between atoms: _483  and  _484
REMARK  208  A    between atoms: _484  and  _485
REMARK  209  A    between atoms: _494  and  _496
REMARK  210  A    between atoms: _496  and  _497
REMARK  211  A    between atoms: _496  and  _499
REMARK  212  A    between atoms: _499  and  _500
REMARK  213  A    between atoms: _503  and  _505
REMARK  214  A    between atoms: _505  and  _506
REMARK  215  A    between atoms: _505  and  _508
REMARK  216  A    between atoms: _508  and  _509
REMARK  217  A    between atoms: _512  and  _514
REMARK  218  A    between atoms: _514  and  _515
REMARK  219  A    between atoms: _514  and  _517
REMARK  220  A    between atoms: _517  and  _518
REMARK  221  A    between atoms: _518  and  _519
REMARK  222  A    between atoms: _524  and  _526
REMARK  223  A    between atoms: _526  and  _527
REMARK  224  A    between atoms: _526  and  _529
REMARK  225  A    between atoms: _532  and  _534
REMARK  226  A    between atoms: _534  and  _535
REMARK  227  A    between atoms: _534  and  _537
REMARK  228  A    between atoms: _537  and  _538
REMARK  229  A    between atoms: _541  and  _543
REMARK  230  A    between atoms: _543  and  _544
REMARK  231  A    between atoms: _543  and  _546
REMARK  232  A    between atoms: _546  and  _547
REMARK  233  A    between atoms: _547  and  _548
REMARK  234  A    between atoms: _550  and  _552
REMARK  235  A    between atoms: _552  and  _553
REMARK  236  A    between atoms: _552  and  _555
REMARK  237  A    between atoms: _555  and  _556
REMARK  238  A    between atoms: _556  and  _557
REMARK  239  A    between atoms: _560  and  _562
REMARK  240  A    between atoms: _562  and  _563
REMARK  241  A    between atoms: _562  and  _565
REMARK  242  A    between atoms: _565  and  _566
REMARK  243  A    between atoms: _569  and  _571
REMARK  244  A    between atoms: _571  and  _572
REMARK  245  A    between atoms: _571  and  _574
REMARK  246  A    between atoms: _574  and  _575
REMARK  247  A    between atoms: _575  and  _576
REMARK  248  A    between atoms: _581  and  _583
REMARK  249  A    between atoms: _583  and  _584
REMARK  250  A    between atoms: _583  and  _586
REMARK  251  A    between atoms: _586  and  _587
REMARK  252  A    between atoms: _590  and  _592
REMARK  253  A    between atoms: _592  and  _593
REMARK  254  A    between atoms: _592  and  _595
REMARK  255  A    between atoms: _595  and  _596
REMARK  256  A    between atoms: _601  and  _603
REMARK  257  A    between atoms: _603  and  _604
REMARK  258  A    between atoms: _607  and  _609
REMARK  259  A    between atoms: _609  and  _610
REMARK  260  A    between atoms: _609  and  _612
REMARK  261  A    between atoms: _612  and  _613
REMARK  262  A    between atoms: _616  and  _618
REMARK  263  A    between atoms: _618  and  _619
REMARK  264  A    between atoms: _618  and  _621
REMARK  265  A    between atoms: _624  and  _626
REMARK  266  A    between atoms: _626  and  _627
REMARK  267  A    between atoms: _626  and  _629
REMARK  268  A    between atoms: _629  and  _630
REMARK  269  A    between atoms: _630  and  _631
REMARK  270  A    between atoms: _631  and  _632
REMARK  271  A    between atoms: _641  and  _643
REMARK  272  A    between atoms: _643  and  _644
REMARK  273  A    between atoms: _643  and  _646
REMARK  274  A    between atoms: _646  and  _647
REMARK  275  A    between atoms: _650  and  _652
REMARK  276  A    between atoms: _652  and  _653
REMARK  277  A    between atoms: _652  and  _655
REMARK  278  A    between atoms: _655  and  _656
REMARK  279  A    between atoms: _659  and  _661
REMARK  280  A    between atoms: _661  and  _662
REMARK  281  A    between atoms: _661  and  _664
REMARK  282  A    between atoms: _664  and  _665
REMARK  283  A    between atoms: _665  and  _666
REMARK  284  A    between atoms: _666  and  _667
REMARK  285  A    between atoms: _676  and  _678
REMARK  286  A    between atoms: _678  and  _679
REMARK  287  A    between atoms: _678  and  _681
REMARK  288  A    between atoms: _681  and  _682
REMARK  289  A    between atoms: _682  and  _683
REMARK  290  A    between atoms: _688  and  _690
REMARK  291  A    between atoms: _690  and  _691
REMARK  292  A    between atoms: _690  and  _693
REMARK  293  A    between atoms: _696  and  _698
REMARK  294  A    between atoms: _698  and  _699
REMARK  295  A    between atoms: _698  and  _701
REMARK  296  A    between atoms: _701  and  _702
REMARK                            x       y       z     vdW  Elec       q    Type
REMARK                         _______ _______ _______ _____ _____    ______ ____
ROOT
ATOM      1  CA  ILE A   1      -1.661  -2.311  22.000  0.00  0.00    +0.133 C 
ENDROOT
BRANCH   1   2
ATOM      2  N   ILE A   1      -0.563  -1.391  22.265  0.00  0.00    -0.239 NA
ATOM      3  H   ILE A   1       0.214  -1.309  21.578  0.00  0.00    +0.142 HD
ENDBRANCH   1   2
BRANCH   1   4
ATOM      4  C   ILE A   1      -1.661  -3.486  22.976  0.00  0.00    +0.224 C 
ATOM      5  O   ILE A   1      -2.718  -3.911  23.447  0.00  0.00    -0.287 OA
ENDBRANCH   1   4
BRANCH   1   6
ATOM      6  CB  ILE A   1      -1.605  -2.834  20.543  0.00  0.00    +0.023 C 
ATOM      7  CG2 ILE A   1      -2.562  -4.012  20.363  0.00  0.00    +0.002 C 
BRANCH   6   8
ATOM      8  CG1 ILE A   1      -1.951  -1.690  19.585  0.00  0.00    +0.002 C 
ATOM      9  CD1 ILE A   1      -1.887  -2.056  18.118  0.00  0.00    +0.000 C 
ENDBRANCH   6   8
ENDBRANCH   1   6
TORSDOF 4
REMARK  Name = ../refined-set-2016/3v2p/3v2p_pocket.pdb
REMARK  296 active torsions:
REMARK  status: ('A' for Active; 'I' for Inactive)
REMARK    1  A    between atoms: _1  and  _3
REMARK    2  A    between atoms: _3  and  _4
REMARK    3  A    between atoms: _3  and  _6
REMARK    4  A    between atoms: _6  and  _7
REMARK    5  A    between atoms: _7  and  _8
REMARK    6  A    between atoms: _10  and  _12
REMARK    7  A    between atoms: _12  and  _13
REMARK    8  A    between atoms: _12  and  _15
REMARK    9  A    between atoms: _15  and  _16
REMARK   10  A    between atoms: _16  and  _17
REMARK   11  A    between atoms: _20  and  _22
REMARK   12  A    between atoms: _22  and  _23
REMARK   13  A    between atoms: _22  and  _25
REMARK   14  A    between atoms: _25  and  _26
REMARK   15  A    between atoms: _29  and  _31
REMARK   16  A    between atoms: _31  and  _32
REMARK   17  A    between atoms: _31  and  _34
REMARK   18  A    between atoms: _34  and  _35
REMARK   19  A    between atoms: _38  and  _40
REMARK   20  A    between atoms: _40  and  _41
REMARK   21  A    between atoms: _40  and  _43
REMARK   22  A    between atoms: _43  and  _44
REMARK   23  A    between atoms: _49  and  _51
REMARK   24  A    between atoms: _51  and  _52
REMARK   25  A    between atoms: _55  and  _57
REMARK   26  A    between atoms: _57  and  _58
REMARK   27  A    between atoms: _57  and  _60
REMARK   28  A    between atoms: _60  and  _61
REMARK   29  A    between atoms: _64  and  _66
REMARK   30  A    between atoms: _66  and  _67
REMARK   31  A    between atoms: _66  and  _69
REMARK   32  A    between atoms: _72  and  _74
REMARK   33  A    between atoms: _74  and  _75
REMARK   34  A    between atoms: _74  and  _77
REMARK   35  A    between atoms: _77  and  _78
REMARK   36  A    between atoms: _78  and  _79
REMARK   37  A    between atoms: _79  and  _80
REMARK   38  A    between atoms: _89  and  _91
REMARK   39  A    between atoms: _91  and  _92
REMARK   40  A    between atoms: _91  and  _94
REMARK   41  A    between atoms: _94  and  _95
REMARK   42  A    between atoms: _98  and  _100
REMARK   43  A    between atoms: _100  and  _101
REMARK   44  A    between atoms: _100  and  _103
REMARK   45  A    between atoms: _103  and  _104
REMARK   46  A    between atoms: _107  and  _109
REMARK   47  A    between atoms: _109  and  _110
REMARK   48  A    between atoms: _109  and  _112
REMARK   49  A    between atoms: _112  and  _113
REMARK   50  A    between atoms: _113  and  _114
REMARK   51  A    between atoms: _119  and  _121
REMARK   52  A    between atoms: _121  and  _122
REMARK   53  A    between atoms: _121  and  _124
REMARK   54  A    between atoms: _127  and  _129
REMARK   55  A    between atoms: _129  and  _130
REMARK   56  A    between atoms: _129  and  _132
REMARK   57  A    between atoms: _132  and  _133
REMARK   58  A    between atoms: _136  and  _138
REMARK   59  A    between atoms: _138  and  _139
REMARK   60  A    between atoms: _138  and  _141
REMARK   61  A    between atoms: _141  and  _142
REMARK   62  A    between atoms: _142  and  _143
REMARK   63  A    between atoms: _145  and  _147
REMARK   64  A    between atoms: _147  and  _148
REMARK   65  A    between atoms: _147  and  _150
REMARK   66  A    between atoms: _150  and  _151
REMARK   67  A    between atoms: _151  and  _152
REMARK   68  A    between atoms: _155  and  _157
REMARK   69  A    between atoms: _157  and  _158
REMARK   70  A    between atoms: _157  and  _160
REMARK   71  A    between atoms: _160  and  _161
REMARK   72  A    between atoms: _164  and  _166
REMARK   73  A    between atoms: _166  and  _167
REMARK   74  A    between atoms: _166  and  _169
REMARK   75  A    between atoms: _169  and  _170
REMARK   76  A    between atoms: _173  and  _175
REMARK   77  A    between atoms: _175  and  _176
REMARK   78  A    between atoms: _175  and  _178
REMARK   79  A    between atoms: _178  and  _179
REMARK   80  A    between atoms: _184  and  _186
REMARK   81  A    between atoms: _186  and  _187
REMARK   82  A    between atoms: _190  and  _192
REMARK   83  A    between atoms: _192  and  _193
REMARK   84  A    between atoms: _192  and  _195
REMARK   85  A    between atoms: _195  and  _196
REMARK   86  A    between atoms: _199  and  _201
REMARK   87  A    between atoms: _201  and  _202
REMARK   88  A    between atoms: _201  and  _204
REMARK   89  A    between atoms: _207  and  _209
REMARK   90  A    between atoms: _209  and  _210
REMARK   91  A    between atoms: _209  and  _212
REMARK   92  A    between atoms: _212  and  _213
REMARK   93  A    between atoms: _213  and  _214
REMARK   94  A    between atoms: _214  and  _215
REMARK   95  A    between atoms: _224  and  _226
REMARK   96  A    between atoms: _226  and  _227
REMARK   97  A    between atoms: _226  and  _229
REMARK   98  A    between atoms: _229  and  _230
REMARK   99  A    between atoms: _233  and  _235
REMARK  100  A    between atoms: _235  and  _236
REMARK  101  A    between atoms: _235  and  _238
REMARK  102  A    between atoms: _238  and  _239
REMARK  103  A    between atoms: _242  and  _244
REMARK  104  A    between atoms: _244  and  _245
REMARK  105  A    between atoms: _244  and  _247
REMARK  106  A    between atoms: _247  and  _248
REMARK  107  A    between atoms: _248  and  _249
REMARK  108  A    between atoms: _254  and  _256
REMARK  109  A    between atoms: _256  and  _257
REMARK  110  A    between atoms: _256  and  _259
REMARK  111  A    between atoms: _262  and  _264
REMARK  112  A    between atoms: _264  and  _265
REMARK  113  A    between atoms: _264  and  _267
REMARK  114  A    between atoms: _267  and  _268
REMARK  115  A    between atoms: _271  and  _273
REMARK  116  A    between atoms: _273  and  _274
REMARK  117  A    between atoms: _273  and  _276
REMARK  118  A    between atoms: _276  and  _277
REMARK  119  A    between atoms: _277  and  _278
REMARK  120  A    between atoms: _280  and  _282
REMARK  121  A    between atoms: _282  and  _283
REMARK  122  A    between atoms: _282  and  _285
REMARK  123  A    between atoms: _285  and  _286
REMARK  124  A    between atoms: _286  and  _287
REMARK  125  A    between atoms: _290  and  _292
REMARK  126  A    between atoms: _292  and  _293
REMARK  127  A    between atoms: _292  and  _295
REMARK  128  A    between atoms: _295  and  _296
REMARK  129  A    between atoms: _299  and  _301
REMARK  130  A    between atoms: _301  and  _302
REMARK  131  A    between atoms: _301  and  _304
REMARK  132  A    between atoms: _304  and  _305
REMARK  133  A    between atoms: _308  and  _310
REMARK  134  A    between atoms: _310  and  _311
REMARK  135  A    between atoms: _310  and  _313
REMARK  136  A    between atoms: _313  and  _314
REMARK  137  A    between atoms: _319  and  _321
REMARK  138  A    between atoms: _321  and  _322
REMARK  139  A    between atoms: _325  and  _327
REMARK  140  A    between atoms: _327  and  _328
REMARK  141  A    between atoms: _327  and  _330
REMARK  142  A    between atoms: _330  and  _331
REMARK  143  A    between atoms: _334  and  _336
REMARK  144  A    between atoms: _336  and  _337
REMARK  145  A    between atoms: _336  and  _339
REMARK  146  A    between atoms: _342  and  _344
REMARK  147  A    between atoms: _344  and  _345
REMARK  148  A    between atoms: _344  and  _347
REMARK  149  A    between atoms: _347  and  _348
REMARK  150  A    between atoms: _348  and  _349
REMARK  151  A    between atoms: _349  and  _350
REMARK  152  A    between atoms: _359  and  _361
REMARK  153  A    between atoms: _361  and  _362
REMARK  154  A    between atoms: _361  and  _364
REMARK  155  A    between atoms: _364  and  _365
REMARK  156  A    between atoms: _368  and  _370
REMARK  157  A    between atoms: _370  and  _371
REMARK  158  A    between atoms: _370  and  _373
REMARK  159  A    between atoms: _373  and  _374
REMARK  160  A    between atoms: _377  and  _379
REMARK  161  A    between atoms: _379  and  _380
REMARK  162  A    between atoms: _379  and  _382
REMARK  163  A    between atoms: _382  and  _383
REMARK  164  A    between atoms: _383  and  _384
REMARK  165  A    between atoms: _389  and  _391
REMARK  166  A    between atoms: _391  and  _392
REMARK  167  A    between atoms: _391  and  _394
REMARK  168  A    between atoms: _397  and  _399
REMARK  169  A    between atoms: _399  and  _400
REMARK  170  A    between atoms: _399  and  _402
REMARK  171  A    between atoms: _402  and  _403
REMARK  172  A    between atoms: _406  and  _408
REMARK  173  A    between atoms: _408  and  _409
REMARK  174  A    between atoms: _408  and  _411
REMARK  175  A    between atoms: _411  and  _412
REMARK  176  A    between atoms: _412  and  _413
REMARK  177  A    between atoms: _415  and  _417
REMARK  178  A    between atoms: _417  and  _418
REMARK  179  A    between atoms: _417  and  _420
REMARK  180  A    between atoms: _420  and  _421
REMARK  181  A    between atoms: _421  and  _422
REMARK  182  A    between atoms: _425  and  _427
REMARK  183  A    between atoms: _427  and  _428
REMARK  184  A    between atoms: _427  and  _430
REMARK  185  A    between atoms: _430  and  _431
REMARK  186  A    between atoms: _434  and  _436
REMARK  187  A    between atoms: _436  and  _437
REMARK  188  A    between atoms: _436  and  _439
REMARK  189  A    between atoms: _439  and  _440
REMARK  190  A    between atoms: _443  and  _445
REMARK  191  A    between atoms: _445  and  _446
REMARK  192  A    between atoms: _445  and  _448
REMARK  193  A    between atoms: _448  and  _449
REMARK  194  A    between atoms: _454  and  _456
REMARK  195  A    between atoms: _456  and  _457
REMARK  196  A    between atoms: _460  and  _462
REMARK  197  A    between atoms: _462  and  _463
REMARK  198  A    between atoms: _462  and  _465
REMARK  199  A    between atoms: _465  and  _466
REMARK  200  A    between atoms: _469  and  _471
REMARK  201  A    between atoms: _471  and  _472
REMARK  202  A    between atoms: _471  and  _474
REMARK  203  A    between atoms: _477  and  _479
REMARK  204  A    between atoms: _479  and  _480
REMARK  205  A    between atoms: _479  and  _482
REMARK  206  A    between atoms: _482  and  _483
REMARK  207  A    between atoms: _483  and  _484
REMARK  208  A    between atoms: _484  and  _485
REMARK  209  A    between atoms: _494  and  _496
REMARK  210  A    between atoms: _496  and  _497
REMARK  211  A    between atoms: _496  and  _499
REMARK  212  A    between atoms: _499  and  _500
REMARK  213  A    between atoms: _503  and  _505
REMARK  214  A    between atoms: _505  and  _506
REMARK  215  A    between atoms: _505  and  _508
REMARK  216  A    between atoms: _508  and  _509
REMARK  217  A    between atoms: _512  and  _514
REMARK  218  A    between atoms: _514  and  _515
REMARK  219  A    between atoms: _514  and  _517
REMARK  220  A    between atoms: _517  and  _518
REMARK  221  A    between atoms: _518  and  _519
REMARK  222  A    between atoms: _524  and  _526
REMARK  223  A    between atoms: _526  and  _527
REMARK  224  A    between atoms: _526  and  _529
REMARK  225  A    between atoms: _532  and  _534
REMARK  226  A    between atoms: _534  and  _535
REMARK  227  A    between atoms: _534  and  _537
REMARK  228  A    between atoms: _537  and  _538
REMARK  229  A    between atoms: _541  and  _543
REMARK  230  A    between atoms: _543  and  _544
REMARK  231  A    between atoms: _543  and  _546
REMARK  232  A    between atoms: _546  and  _547
REMARK  233  A    between atoms: _547  and  _548
REMARK  234  A    between atoms: _550  and  _552
REMARK  235  A    between atoms: _552  and  _553
REMARK  236  A    between atoms: _552  and  _555
REMARK  237  A    between atoms: _555  and  _556
REMARK  238  A    between atoms: _556  and  _557
REMARK  239  A    between atoms: _560  and  _562
REMARK  240  A    between atoms: _562  and  _563
REMARK  241  A    between atoms: _562  and  _565
REMARK  242  A    between atoms: _565  and  _566
REMARK  243  A    between atoms: _569  and  _571
REMARK  244  A    between atoms: _571  and  _572
REMARK  245  A    between atoms: _571  and  _574
REMARK  246  A    between atoms: _574  and  _575
REMARK  247  A    between atoms: _575  and  _576
REMARK  248  A    between atoms: _581  and  _583
REMARK  249  A    between atoms: _583  and  _584
REMARK  250  A    between atoms: _583  and  _586
REMARK  251  A    between atoms: _586  and  _587
REMARK  252  A    between atoms: _590  and  _592
REMARK  253  A    between atoms: _592  and  _593
REMARK  254  A    between atoms: _592  and  _595
REMARK  255  A    between atoms: _595  and  _596
REMARK  256  A    between atoms: _601  and  _603
REMARK  257  A    between atoms: _603  and  _604
REMARK  258  A    between atoms: _607  and  _609
REMARK  259  A    between atoms: _609  and  _610
REMARK  260  A    between atoms: _609  and  _612
REMARK  261  A    between atoms: _612  and  _613
REMARK  262  A    between atoms: _616  and  _618
REMARK  263  A    between atoms: _618  and  _619
REMARK  264  A    between atoms: _618  and  _621
REMARK  265  A    between atoms: _624  and  _626
REMARK  266  A    between atoms: _626  and  _627
REMARK  267  A    between atoms: _626  and  _629
REMARK  268  A    between atoms: _629  and  _630
REMARK  269  A    between atoms: _630  and  _631
REMARK  270  A    between atoms: _631  and  _632
REMARK  271  A    between atoms: _641  and  _643
REMARK  272  A    between atoms: _643  and  _644
REMARK  273  A    between atoms: _643  and  _646
REMARK  274  A    between atoms: _646  and  _647
REMARK  275  A    between atoms: _650  and  _652
REMARK  276  A    between atoms: _652  and  _653
REMARK  277  A    between atoms: _652  and  _655
REMARK  278  A    between atoms: _655  and  _656
REMARK  279  A    between atoms: _659  and  _661
REMARK  280  A    between atoms: _661  and  _662
REMARK  281  A    between atoms: _661  and  _664
REMARK  282  A    between atoms: _664  and  _665
REMARK  283  A    between atoms: _665  and  _666
REMARK  284  A    between atoms: _666  and  _667
REMARK  285  A    between atoms: _676  and  _678
REMARK  286  A    between atoms: _678  and  _679
REMARK  287  A    between atoms: _678  and  _681
REMARK  288  A    between atoms: _681  and  _682
REMARK  289  A    between atoms: _682  and  _683
REMARK  290  A    between atoms: _688  and  _690
REMARK  291  A    between atoms: _690  and  _691
REMARK  292  A    between atoms: _690  and  _693
REMARK  293  A    between atoms: _696  and  _698
REMARK  294  A    between atoms: _698  and  _699
REMARK  295  A    between atoms: _698  and  _701
REMARK  296  A    between atoms: _701  and  _702
REMARK                            x       y       z     vdW  Elec       q    Type
REMARK                         _______ _______ _______ _____ _____    ______ ____
ROOT
ATOM      1  CA  MET A   1      22.925   1.352  -3.612  0.00  0.00    +0.134 C 
ENDROOT
BRANCH   1   2
ATOM      2  N   MET A   1      24.355   1.550  -3.383  0.00  0.00    -0.239 NA
ATOM      3  H   MET A   1      24.995   1.702  -4.188  0.00  0.00    +0.142 HD
ENDBRANCH   1   2
BRANCH   1   4
ATOM      4  C   MET A   1      22.495  -0.023  -3.114  0.00  0.00    +0.224 C 
ATOM      5  O   MET A   1      21.454  -0.163  -2.470  0.00  0.00    -0.287 OA
ENDBRANCH   1   4
BRANCH   1   6
ATOM      6  CB  MET A   1      22.578   1.505  -5.094  0.00  0.00    +0.037 C 
BRANCH   6   7
ATOM      7  CG  MET A   1      22.399   2.947  -5.536  0.00  0.00    +0.059 C 
BRANCH   7   8
ATOM      8  SD  MET A   1      22.061   3.092  -7.304  0.00  0.00    -0.139 S 
ATOM      9  CE  MET A   1      20.271   2.905  -7.337  0.00  0.00    +0.069 C 
ENDBRANCH   7   8
ENDBRANCH   6   7
ENDBRANCH   1   6
TORSDOF 5
REMARK  Name = ../refined-set-2016/3v2p/3v2p_pocket.pdb
REMARK  296 active torsions:
REMARK  status: ('A' for Active; 'I' for Inactive)
REMARK    1  A    between atoms: _1  and  _3
REMARK    2  A    between atoms: _3  and  _4
REMARK    3  A    between atoms: _3  and  _6
REMARK    4  A    between atoms: _6  and  _7
REMARK    5  A    between atoms: _7  and  _8
REMARK    6  A    between atoms: _10  and  _12
REMARK    7  A    between atoms: _12  and  _13
REMARK    8  A    between atoms: _12  and  _15
REMARK    9  A    between atoms: _15  and  _16
REMARK   10  A    between atoms: _16  and  _17
REMARK   11  A    between atoms: _20  and  _22
REMARK   12  A    between atoms: _22  and  _23
REMARK   13  A    between atoms: _22  and  _25
REMARK   14  A    between atoms: _25  and  _26
REMARK   15  A    between atoms: _29  and  _31
REMARK   16  A    between atoms: _31  and  _32
REMARK   17  A    between atoms: _31  and  _34
REMARK   18  A    between atoms: _34  and  _35
REMARK   19  A    between atoms: _38  and  _40
REMARK   20  A    between atoms: _40  and  _41
REMARK   21  A    between atoms: _40  and  _43
REMARK   22  A    between atoms: _43  and  _44
REMARK   23  A    between atoms: _49  and  _51
REMARK   24  A    between atoms: _51  and  _52
REMARK   25  A    between atoms: _55  and  _57
REMARK   26  A    between atoms: _57  and  _58
REMARK   27  A    between atoms: _57  and  _60
REMARK   28  A    between atoms: _60  and  _61
REMARK   29  A    between atoms: _64  and  _66
REMARK   30  A    between atoms: _66  and  _67
REMARK   31  A    between atoms: _66  and  _69
REMARK   32  A    between atoms: _72  and  _74
REMARK   33  A    between atoms: _74  and  _75
REMARK   34  A    between atoms: _74  and  _77
REMARK   35  A    between atoms: _77  and  _78
REMARK   36  A    between atoms: _78  and  _79
REMARK   37  A    between atoms: _79  and  _80
REMARK   38  A    between atoms: _89  and  _91
REMARK   39  A    between atoms: _91  and  _92
REMARK   40  A    between atoms: _91  and  _94
REMARK   41  A    between atoms: _94  and  _95
REMARK   42  A    between atoms: _98  and  _100
REMARK   43  A    between atoms: _100  and  _101
REMARK   44  A    between atoms: _100  and  _103
REMARK   45  A    between atoms: _103  and  _104
REMARK   46  A    between atoms: _107  and  _109
REMARK   47  A    between atoms: _109  and  _110
REMARK   48  A    between atoms: _109  and  _112
REMARK   49  A    between atoms: _112  and  _113
REMARK   50  A    between atoms: _113  and  _114
REMARK   51  A    between atoms: _119  and  _121
REMARK   52  A    between atoms: _121  and  _122
REMARK   53  A    between atoms: _121  and  _124
REMARK   54  A    between atoms: _127  and  _129
REMARK   55  A    between atoms: _129  and  _130
REMARK   56  A    between atoms: _129  and  _132
REMARK   57  A    between atoms: _132  and  _133
REMARK   58  A    between atoms: _136  and  _138
REMARK   59  A    between atoms: _138  and  _139
REMARK   60  A    between atoms: _138  and  _141
REMARK   61  A    between atoms: _141  and  _142
REMARK   62  A    between atoms: _142  and  _143
REMARK   63  A    between atoms: _145  and  _147
REMARK   64  A    between atoms: _147  and  _148
REMARK   65  A    between atoms: _147  and  _150
REMARK   66  A    between atoms: _150  and  _151
REMARK   67  A    between atoms: _151  and  _152
REMARK   68  A    between atoms: _155  and  _157
REMARK   69  A    between atoms: _157  and  _158
REMARK   70  A    between atoms: _157  and  _160
REMARK   71  A    between atoms: _160  and  _161
REMARK   72  A    between atoms: _164  and  _166
REMARK   73  A    between atoms: _166  and  _167
REMARK   74  A    between atoms: _166  and  _169
REMARK   75  A    between atoms: _169  and  _170
REMARK   76  A    between atoms: _173  and  _175
REMARK   77  A    between atoms: _175  and  _176
REMARK   78  A    between atoms: _175  and  _178
REMARK   79  A    between atoms: _178  and  _179
REMARK   80  A    between atoms: _184  and  _186
REMARK   81  A    between atoms: _186  and  _187
REMARK   82  A    between atoms: _190  and  _192
REMARK   83  A    between atoms: _192  and  _193
REMARK   84  A    between atoms: _192  and  _195
REMARK   85  A    between atoms: _195  and  _196
REMARK   86  A    between atoms: _199  and  _201
REMARK   87  A    between atoms: _201  and  _202
REMARK   88  A    between atoms: _201  and  _204
REMARK   89  A    between atoms: _207  and  _209
REMARK   90  A    between atoms: _209  and  _210
REMARK   91  A    between atoms: _209  and  _212
REMARK   92  A    between atoms: _212  and  _213
REMARK   93  A    between atoms: _213  and  _214
REMARK   94  A    between atoms: _214  and  _215
REMARK   95  A    between atoms: _224  and  _226
REMARK   96  A    between atoms: _226  and  _227
REMARK   97  A    between atoms: _226  and  _229
REMARK   98  A    between atoms: _229  and  _230
REMARK   99  A    between atoms: _233  and  _235
REMARK  100  A    between atoms: _235  and  _236
REMARK  101  A    between atoms: _235  and  _238
REMARK  102  A    between atoms: _238  and  _239
REMARK  103  A    between atoms: _242  and  _244
REMARK  104  A    between atoms: _244  and  _245
REMARK  105  A    between atoms: _244  and  _247
REMARK  106  A    between atoms: _247  and  _248
REMARK  107  A    between atoms: _248  and  _249
REMARK  108  A    between atoms: _254  and  _256
REMARK  109  A    between atoms: _256  and  _257
REMARK  110  A    between atoms: _256  and  _259
REMARK  111  A    between atoms: _262  and  _264
REMARK  112  A    between atoms: _264  and  _265
REMARK  113  A    between atoms: _264  and  _267
REMARK  114  A    between atoms: _267  and  _268
REMARK  115  A    between atoms: _271  and  _273
REMARK  116  A    between atoms: _273  and  _274
REMARK  117  A    between atoms: _273  and  _276
REMARK  118  A    between atoms: _276  and  _277
REMARK  119  A    between atoms: _277  and  _278
REMARK  120  A    between atoms: _280  and  _282
REMARK  121  A    between atoms: _282  and  _283
REMARK  122  A    between atoms: _282  and  _285
REMARK  123  A    between atoms: _285  and  _286
REMARK  124  A    between atoms: _286  and  _287
REMARK  125  A    between atoms: _290  and  _292
REMARK  126  A    between atoms: _292  and  _293
REMARK  127  A    between atoms: _292  and  _295
REMARK  128  A    between atoms: _295  and  _296
REMARK  129  A    between atoms: _299  and  _301
REMARK  130  A    between atoms: _301  and  _302
REMARK  131  A    between atoms: _301  and  _304
REMARK  132  A    between atoms: _304  and  _305
REMARK  133  A    between atoms: _308  and  _310
REMARK  134  A    between atoms: _310  and  _311
REMARK  135  A    between atoms: _310  and  _313
REMARK  136  A    between atoms: _313  and  _314
REMARK  137  A    between atoms: _319  and  _321
REMARK  138  A    between atoms: _321  and  _322
REMARK  139  A    between atoms: _325  and  _327
REMARK  140  A    between atoms: _327  and  _328
REMARK  141  A    between atoms: _327  and  _330
REMARK  142  A    between atoms: _330  and  _331
REMARK  143  A    between atoms: _334  and  _336
REMARK  144  A    between atoms: _336  and  _337
REMARK  145  A    between atoms: _336  and  _339
REMARK  146  A    between atoms: _342  and  _344
REMARK  147  A    between atoms: _344  and  _345
REMARK  148  A    between atoms: _344  and  _347
REMARK  149  A    between atoms: _347  and  _348
REMARK  150  A    between atoms: _348  and  _349
REMARK  151  A    between atoms: _349  and  _350
REMARK  152  A    between atoms: _359  and  _361
REMARK  153  A    between atoms: _361  and  _362
REMARK  154  A    between atoms: _361  and  _364
REMARK  155  A    between atoms: _364  and  _365
REMARK  156  A    between atoms: _368  and  _370
REMARK  157  A    between atoms: _370  and  _371
REMARK  158  A    between atoms: _370  and  _373
REMARK  159  A    between atoms: _373  and  _374
REMARK  160  A    between atoms: _377  and  _379
REMARK  161  A    between atoms: _379  and  _380
REMARK  162  A    between atoms: _379  and  _382
REMARK  163  A    between atoms: _382  and  _383
REMARK  164  A    between atoms: _383  and  _384
REMARK  165  A    between atoms: _389  and  _391
REMARK  166  A    between atoms: _391  and  _392
REMARK  167  A    between atoms: _391  and  _394
REMARK  168  A    between atoms: _397  and  _399
REMARK  169  A    between atoms: _399  and  _400
REMARK  170  A    between atoms: _399  and  _402
REMARK  171  A    between atoms: _402  and  _403
REMARK  172  A    between atoms: _406  and  _408
REMARK  173  A    between atoms: _408  and  _409
REMARK  174  A    between atoms: _408  and  _411
REMARK  175  A    between atoms: _411  and  _412
REMARK  176  A    between atoms: _412  and  _413
REMARK  177  A    between atoms: _415  and  _417
REMARK  178  A    between atoms: _417  and  _418
REMARK  179  A    between atoms: _417  and  _420
REMARK  180  A    between atoms: _420  and  _421
REMARK  181  A    between atoms: _421  and  _422
REMARK  182  A    between atoms: _425  and  _427
REMARK  183  A    between atoms: _427  and  _428
REMARK  184  A    between atoms: _427  and  _430
REMARK  185  A    between atoms: _430  and  _431
REMARK  186  A    between atoms: _434  and  _436
REMARK  187  A    between atoms: _436  and  _437
REMARK  188  A    between atoms: _436  and  _439
REMARK  189  A    between atoms: _439  and  _440
REMARK  190  A    between atoms: _443  and  _445
REMARK  191  A    between atoms: _445  and  _446
REMARK  192  A    between atoms: _445  and  _448
REMARK  193  A    between atoms: _448  and  _449
REMARK  194  A    between atoms: _454  and  _456
REMARK  195  A    between atoms: _456  and  _457
REMARK  196  A    between atoms: _460  and  _462
REMARK  197  A    between atoms: _462  and  _463
REMARK  198  A    between atoms: _462  and  _465
REMARK  199  A    between atoms: _465  and  _466
REMARK  200  A    between atoms: _469  and  _471
REMARK  201  A    between atoms: _471  and  _472
REMARK  202  A    between atoms: _471  and  _474
REMARK  203  A    between atoms: _477  and  _479
REMARK  204  A    between atoms: _479  and  _480
REMARK  205  A    between atoms: _479  and  _482
REMARK  206  A    between atoms: _482  and  _483
REMARK  207  A    between atoms: _483  and  _484
REMARK  208  A    between atoms: _484  and  _485
REMARK  209  A    between atoms: _494  and  _496
REMARK  210  A    between atoms: _496  and  _497
REMARK  211  A    between atoms: _496  and  _499
REMARK  212  A    between atoms: _499  and  _500
REMARK  213  A    between atoms: _503  and  _505
REMARK  214  A    between atoms: _505  and  _506
REMARK  215  A    between atoms: _505  and  _508
REMARK  216  A    between atoms: _508  and  _509
REMARK  217  A    between atoms: _512  and  _514
REMARK  218  A    between atoms: _514  and  _515
REMARK  219  A    between atoms: _514  and  _517
REMARK  220  A    between atoms: _517  and  _518
REMARK  221  A    between atoms: _518  and  _519
REMARK  222  A    between atoms: _524  and  _526
REMARK  223  A    between atoms: _526  and  _527
REMARK  224  A    between atoms: _526  and  _529
REMARK  225  A    between atoms: _532  and  _534
REMARK  226  A    between atoms: _534  and  _535
REMARK  227  A    between atoms: _534  and  _537
REMARK  228  A    between atoms: _537  and  _538
REMARK  229  A    between atoms: _541  and  _543
REMARK  230  A    between atoms: _543  and  _544
REMARK  231  A    between atoms: _543  and  _546
REMARK  232  A    between atoms: _546  and  _547
REMARK  233  A    between atoms: _547  and  _548
REMARK  234  A    between atoms: _550  and  _552
REMARK  235  A    between atoms: _552  and  _553
REMARK  236  A    between atoms: _552  and  _555
REMARK  237  A    between atoms: _555  and  _556
REMARK  238  A    between atoms: _556  and  _557
REMARK  239  A    between atoms: _560  and  _562
REMARK  240  A    between atoms: _562  and  _563
REMARK  241  A    between atoms: _562  and  _565
REMARK  242  A    between atoms: _565  and  _566
REMARK  243  A    between atoms: _569  and  _571
REMARK  244  A    between atoms: _571  and  _572
REMARK  245  A    between atoms: _571  and  _574
REMARK  246  A    between atoms: _574  and  _575
REMARK  247  A    between atoms: _575  and  _576
REMARK  248  A    between atoms: _581  and  _583
REMARK  249  A    between atoms: _583  and  _584
REMARK  250  A    between atoms: _583  and  _586
REMARK  251  A    between atoms: _586  and  _587
REMARK  252  A    between atoms: _590  and  _592
REMARK  253  A    between atoms: _592  and  _593
REMARK  254  A    between atoms: _592  and  _595
REMARK  255  A    between atoms: _595  and  _596
REMARK  256  A    between atoms: _601  and  _603
REMARK  257  A    between atoms: _603  and  _604
REMARK  258  A    between atoms: _607  and  _609
REMARK  259  A    between atoms: _609  and  _610
REMARK  260  A    between atoms: _609  and  _612
REMARK  261  A    between atoms: _612  and  _613
REMARK  262  A    between atoms: _616  and  _618
REMARK  263  A    between atoms: _618  and  _619
REMARK  264  A    between atoms: _618  and  _621
REMARK  265  A    between atoms: _624  and  _626
REMARK  266  A    between atoms: _626  and  _627
REMARK  267  A    between atoms: _626  and  _629
REMARK  268  A    between atoms: _629  and  _630
REMARK  269  A    between atoms: _630  and  _631
REMARK  270  A    between atoms: _631  and  _632
REMARK  271  A    between atoms: _641  and  _643
REMARK  272  A    between atoms: _643  and  _644
REMARK  273  A    between atoms: _643  and  _646
REMARK  274  A    between atoms: _646  and  _647
REMARK  275  A    between atoms: _650  and  _652
REMARK  276  A    between atoms: _652  and  _653
REMARK  277  A    between atoms: _652  and  _655
REMARK  278  A    between atoms: _655  and  _656
REMARK  279  A    between atoms: _659  and  _661
REMARK  280  A    between atoms: _661  and  _662
REMARK  281  A    between atoms: _661  and  _664
REMARK  282  A    between atoms: _664  and  _665
REMARK  283  A    between atoms: _665  and  _666
REMARK  284  A    between atoms: _666  and  _667
REMARK  285  A    between atoms: _676  and  _678
REMARK  286  A    between atoms: _678  and  _679
REMARK  287  A    between atoms: _678  and  _681
REMARK  288  A    between atoms: _681  and  _682
REMARK  289  A    between atoms: _682  and  _683
REMARK  290  A    between atoms: _688  and  _690
REMARK  291  A    between atoms: _690  and  _691
REMARK  292  A    between atoms: _690  and  _693
REMARK  293  A    between atoms: _696  and  _698
REMARK  294  A    between atoms: _698  and  _699
REMARK  295  A    between atoms: _698  and  _701
REMARK  296  A    between atoms: _701  and  _702
REMARK                            x       y       z     vdW  Elec       q    Type
REMARK                         _______ _______ _______ _____ _____    ______ ____
ROOT
ATOM      1  C   GLU A   1      19.564  -0.383   0.665  0.00  0.00    +0.238 C 
ATOM      2  O   GLU A   1      18.682  -0.497   1.508  0.00  0.00    -0.274 OA
ATOM      3  N   LEU A   2      19.563  -1.081  -0.465  0.00  0.00    -0.298 N 
ATOM      4  H   LEU A   2      20.334  -0.955  -1.151  0.00  0.00    +0.150 HD
ENDROOT
BRANCH   1   5
ATOM      5  CA  GLU A   1      20.731   0.570   0.890  0.00  0.00    +0.145 C 
BRANCH   5   6
ATOM      6  N   GLU A   1      21.981  -0.083   0.517  0.00  0.00    -0.238 NA
ATOM      7  H   GLU A   1      22.539   0.283  -0.281  0.00  0.00    +0.142 HD
ENDBRANCH   5   6
BRANCH   5   8
ATOM      8  CB  GLU A   1      20.512   1.853   0.081  0.00  0.00    +0.038 C 
BRANCH   8   9
ATOM      9  CG  GLU A   1      21.512   2.958   0.387  0.00  0.00    +0.116 C 
BRANCH   9  10
ATOM     10  CD  GLU A   1      21.508   3.364   1.858  0.00  0.00    +0.365 C 
ATOM     11  OE2 GLU A   1      22.591   3.405   2.456  0.00  0.00    -0.246 OA
ATOM     12  OE1 GLU A   1      20.426   3.647   2.412  0.00  0.00    -0.246 OA
ENDBRANCH   9  10
ENDBRANCH   8   9
ENDBRANCH   5   8
ENDBRANCH   1   5
BRANCH   3  13
ATOM     13  CA  LEU A   2      18.485  -2.025  -0.749  0.00  0.00    +0.137 C 
BRANCH  13  14
ATOM     14  C   LEU A   2      18.455  -3.132   0.296  0.00  0.00    +0.227 C 
ATOM     15  O   LEU A   2      17.388  -3.559   0.730  0.00  0.00    -0.286 OA
ENDBRANCH  13  14
BRANCH  13  16
ATOM     16  CB  LEU A   2      18.660  -2.635  -2.137  0.00  0.00    +0.028 C 
BRANCH  16  17
ATOM     17  CG  LEU A   2      18.585  -1.619  -3.277  0.00  0.00    +0.002 C 
ATOM     18  CD2 LEU A   2      17.253  -0.889  -3.220  0.00  0.00    +0.000 C 
ATOM     19  CD1 LEU A   2      18.753  -2.329  -4.611  0.00  0.00    +0.000 C 
ENDBRANCH  16  17
ENDBRANCH  13  16
ENDBRANCH   3  13
TORSDOF 9
REMARK  Name = ../refined-set-2016/3v2p/3v2p_pocket.pdb
REMARK  296 active torsions:
REMARK  status: ('A' for Active; 'I' for Inactive)
REMARK    1  A    between atoms: _1  and  _3
REMARK    2  A    between atoms: _3  and  _4
REMARK    3  A    between atoms: _3  and  _6
REMARK    4  A    between atoms: _6  and  _7
REMARK    5  A    between atoms: _7  and  _8
REMARK    6  A    between atoms: _10  and  _12
REMARK    7  A    between atoms: _12  and  _13
REMARK    8  A    between atoms: _12  and  _15
REMARK    9  A    between atoms: _15  and  _16
REMARK   10  A    between atoms: _16  and  _17
REMARK   11  A    between atoms: _20  and  _22
REMARK   12  A    between atoms: _22  and  _23
REMARK   13  A    between atoms: _22  and  _25
REMARK   14  A    between atoms: _25  and  _26
REMARK   15  A    between atoms: _29  and  _31
REMARK   16  A    between atoms: _31  and  _32
REMARK   17  A    between atoms: _31  and  _34
REMARK   18  A    between atoms: _34  and  _35
REMARK   19  A    between atoms: _38  and  _40
REMARK   20  A    between atoms: _40  and  _41
REMARK   21  A    between atoms: _40  and  _43
REMARK   22  A    between atoms: _43  and  _44
REMARK   23  A    between atoms: _49  and  _51
REMARK   24  A    between atoms: _51  and  _52
REMARK   25  A    between atoms: _55  and  _57
REMARK   26  A    between atoms: _57  and  _58
REMARK   27  A    between atoms: _57  and  _60
REMARK   28  A    between atoms: _60  and  _61
REMARK   29  A    between atoms: _64  and  _66
REMARK   30  A    between atoms: _66  and  _67
REMARK   31  A    between atoms: _66  and  _69
REMARK   32  A    between atoms: _72  and  _74
REMARK   33  A    between atoms: _74  and  _75
REMARK   34  A    between atoms: _74  and  _77
REMARK   35  A    between atoms: _77  and  _78
REMARK   36  A    between atoms: _78  and  _79
REMARK   37  A    between atoms: _79  and  _80
REMARK   38  A    between atoms: _89  and  _91
REMARK   39  A    between atoms: _91  and  _92
REMARK   40  A    between atoms: _91  and  _94
REMARK   41  A    between atoms: _94  and  _95
REMARK   42  A    between atoms: _98  and  _100
REMARK   43  A    between atoms: _100  and  _101
REMARK   44  A    between atoms: _100  and  _103
REMARK   45  A    between atoms: _103  and  _104
REMARK   46  A    between atoms: _107  and  _109
REMARK   47  A    between atoms: _109  and  _110
REMARK   48  A    between atoms: _109  and  _112
REMARK   49  A    between atoms: _112  and  _113
REMARK   50  A    between atoms: _113  and  _114
REMARK   51  A    between atoms: _119  and  _121
REMARK   52  A    between atoms: _121  and  _122
REMARK   53  A    between atoms: _121  and  _124
REMARK   54  A    between atoms: _127  and  _129
REMARK   55  A    between atoms: _129  and  _130
REMARK   56  A    between atoms: _129  and  _132
REMARK   57  A    between atoms: _132  and  _133
REMARK   58  A    between atoms: _136  and  _138
REMARK   59  A    between atoms: _138  and  _139
REMARK   60  A    between atoms: _138  and  _141
REMARK   61  A    between atoms: _141  and  _142
REMARK   62  A    between atoms: _142  and  _143
REMARK   63  A    between atoms: _145  and  _147
REMARK   64  A    between atoms: _147  and  _148
REMARK   65  A    between atoms: _147  and  _150
REMARK   66  A    between atoms: _150  and  _151
REMARK   67  A    between atoms: _151  and  _152
REMARK   68  A    between atoms: _155  and  _157
REMARK   69  A    between atoms: _157  and  _158
REMARK   70  A    between atoms: _157  and  _160
REMARK   71  A    between atoms: _160  and  _161
REMARK   72  A    between atoms: _164  and  _166
REMARK   73  A    between atoms: _166  and  _167
REMARK   74  A    between atoms: _166  and  _169
REMARK   75  A    between atoms: _169  and  _170
REMARK   76  A    between atoms: _173  and  _175
REMARK   77  A    between atoms: _175  and  _176
REMARK   78  A    between atoms: _175  and  _178
REMARK   79  A    between atoms: _178  and  _179
REMARK   80  A    between atoms: _184  and  _186
REMARK   81  A    between atoms: _186  and  _187
REMARK   82  A    between atoms: _190  and  _192
REMARK   83  A    between atoms: _192  and  _193
REMARK   84  A    between atoms: _192  and  _195
REMARK   85  A    between atoms: _195  and  _196
REMARK   86  A    between atoms: _199  and  _201
REMARK   87  A    between atoms: _201  and  _202
REMARK   88  A    between atoms: _201  and  _204
REMARK   89  A    between atoms: _207  and  _209
REMARK   90  A    between atoms: _209  and  _210
REMARK   91  A    between atoms: _209  and  _212
REMARK   92  A    between atoms: _212  and  _213
REMARK   93  A    between atoms: _213  and  _214
REMARK   94  A    between atoms: _214  and  _215
REMARK   95  A    between atoms: _224  and  _226
REMARK   96  A    between atoms: _226  and  _227
REMARK   97  A    between atoms: _226  and  _229
REMARK   98  A    between atoms: _229  and  _230
REMARK   99  A    between atoms: _233  and  _235
REMARK  100  A    between atoms: _235  and  _236
REMARK  101  A    between atoms: _235  and  _238
REMARK  102  A    between atoms: _238  and  _239
REMARK  103  A    between atoms: _242  and  _244
REMARK  104  A    between atoms: _244  and  _245
REMARK  105  A    between atoms: _244  and  _247
REMARK  106  A    between atoms: _247  and  _248
REMARK  107  A    between atoms: _248  and  _249
REMARK  108  A    between atoms: _254  and  _256
REMARK  109  A    between atoms: _256  and  _257
REMARK  110  A    between atoms: _256  and  _259
REMARK  111  A    between atoms: _262  and  _264
REMARK  112  A    between atoms: _264  and  _265
REMARK  113  A    between atoms: _264  and  _267
REMARK  114  A    between atoms: _267  and  _268
REMARK  115  A    between atoms: _271  and  _273
REMARK  116  A    between atoms: _273  and  _274
REMARK  117  A    between atoms: _273  and  _276
REMARK  118  A    between atoms: _276  and  _277
REMARK  119  A    between atoms: _277  and  _278
REMARK  120  A    between atoms: _280  and  _282
REMARK  121  A    between atoms: _282  and  _283
REMARK  122  A    between atoms: _282  and  _285
REMARK  123  A    between atoms: _285  and  _286
REMARK  124  A    between atoms: _286  and  _287
REMARK  125  A    between atoms: _290  and  _292
REMARK  126  A    between atoms: _292  and  _293
REMARK  127  A    between atoms: _292  and  _295
REMARK  128  A    between atoms: _295  and  _296
REMARK  129  A    between atoms: _299  and  _301
REMARK  130  A    between atoms: _301  and  _302
REMARK  131  A    between atoms: _301  and  _304
REMARK  132  A    between atoms: _304  and  _305
REMARK  133  A    between atoms: _308  and  _310
REMARK  134  A    between atoms: _310  and  _311
REMARK  135  A    between atoms: _310  and  _313
REMARK  136  A    between atoms: _313  and  _314
REMARK  137  A    between atoms: _319  and  _321
REMARK  138  A    between atoms: _321  and  _322
REMARK  139  A    between atoms: _325  and  _327
REMARK  140  A    between atoms: _327  and  _328
REMARK  141  A    between atoms: _327  and  _330
REMARK  142  A    between atoms: _330  and  _331
REMARK  143  A    between atoms: _334  and  _336
REMARK  144  A    between atoms: _336  and  _337
REMARK  145  A    between atoms: _336  and  _339
REMARK  146  A    between atoms: _342  and  _344
REMARK  147  A    between atoms: _344  and  _345
REMARK  148  A    between atoms: _344  and  _347
REMARK  149  A    between atoms: _347  and  _348
REMARK  150  A    between atoms: _348  and  _349
REMARK  151  A    between atoms: _349  and  _350
REMARK  152  A    between atoms: _359  and  _361
REMARK  153  A    between atoms: _361  and  _362
REMARK  154  A    between atoms: _361  and  _364
REMARK  155  A    between atoms: _364  and  _365
REMARK  156  A    between atoms: _368  and  _370
REMARK  157  A    between atoms: _370  and  _371
REMARK  158  A    between atoms: _370  and  _373
REMARK  159  A    between atoms: _373  and  _374
REMARK  160  A    between atoms: _377  and  _379
REMARK  161  A    between atoms: _379  and  _380
REMARK  162  A    between atoms: _379  and  _382
REMARK  163  A    between atoms: _382  and  _383
REMARK  164  A    between atoms: _383  and  _384
REMARK  165  A    between atoms: _389  and  _391
REMARK  166  A    between atoms: _391  and  _392
REMARK  167  A    between atoms: _391  and  _394
REMARK  168  A    between atoms: _397  and  _399
REMARK  169  A    between atoms: _399  and  _400
REMARK  170  A    between atoms: _399  and  _402
REMARK  171  A    between atoms: _402  and  _403
REMARK  172  A    between atoms: _406  and  _408
REMARK  173  A    between atoms: _408  and  _409
REMARK  174  A    between atoms: _408  and  _411
REMARK  175  A    between atoms: _411  and  _412
REMARK  176  A    between atoms: _412  and  _413
REMARK  177  A    between atoms: _415  and  _417
REMARK  178  A    between atoms: _417  and  _418
REMARK  179  A    between atoms: _417  and  _420
REMARK  180  A    between atoms: _420  and  _421
REMARK  181  A    between atoms: _421  and  _422
REMARK  182  A    between atoms: _425  and  _427
REMARK  183  A    between atoms: _427  and  _428
REMARK  184  A    between atoms: _427  and  _430
REMARK  185  A    between atoms: _430  and  _431
REMARK  186  A    between atoms: _434  and  _436
REMARK  187  A    between atoms: _436  and  _437
REMARK  188  A    between atoms: _436  and  _439
REMARK  189  A    between atoms: _439  and  _440
REMARK  190  A    between atoms: _443  and  _445
REMARK  191  A    between atoms: _445  and  _446
REMARK  192  A    between atoms: _445  and  _448
REMARK  193  A    between atoms: _448  and  _449
REMARK  194  A    between atoms: _454  and  _456
REMARK  195  A    between atoms: _456  and  _457
REMARK  196  A    between atoms: _460  and  _462
REMARK  197  A    between atoms: _462  and  _463
REMARK  198  A    between atoms: _462  and  _465
REMARK  199  A    between atoms: _465  and  _466
REMARK  200  A    between atoms: _469  and  _471
REMARK  201  A    between atoms: _471  and  _472
REMARK  202  A    between atoms: _471  and  _474
REMARK  203  A    between atoms: _477  and  _479
REMARK  204  A    between atoms: _479  and  _480
REMARK  205  A    between atoms: _479  and  _482
REMARK  206  A    between atoms: _482  and  _483
REMARK  207  A    between atoms: _483  and  _484
REMARK  208  A    between atoms: _484  and  _485
REMARK  209  A    between atoms: _494  and  _496
REMARK  210  A    between atoms: _496  and  _497
REMARK  211  A    between atoms: _496  and  _499
REMARK  212  A    between atoms: _499  and  _500
REMARK  213  A    between atoms: _503  and  _505
REMARK  214  A    between atoms: _505  and  _506
REMARK  215  A    between atoms: _505  and  _508
REMARK  216  A    between atoms: _508  and  _509
REMARK  217  A    between atoms: _512  and  _514
REMARK  218  A    between atoms: _514  and  _515
REMARK  219  A    between atoms: _514  and  _517
REMARK  220  A    between atoms: _517  and  _518
REMARK  221  A    between atoms: _518  and  _519
REMARK  222  A    between atoms: _524  and  _526
REMARK  223  A    between atoms: _526  and  _527
REMARK  224  A    between atoms: _526  and  _529
REMARK  225  A    between atoms: _532  and  _534
REMARK  226  A    between atoms: _534  and  _535
REMARK  227  A    between atoms: _534  and  _537
REMARK  228  A    between atoms: _537  and  _538
REMARK  229  A    between atoms: _541  and  _543
REMARK  230  A    between atoms: _543  and  _544
REMARK  231  A    between atoms: _543  and  _546
REMARK  232  A    between atoms: _546  and  _547
REMARK  233  A    between atoms: _547  and  _548
REMARK  234  A    between atoms: _550  and  _552
REMARK  235  A    between atoms: _552  and  _553
REMARK  236  A    between atoms: _552  and  _555
REMARK  237  A    between atoms: _555  and  _556
REMARK  238  A    between atoms: _556  and  _557
REMARK  239  A    between atoms: _560  and  _562
REMARK  240  A    between atoms: _562  and  _563
REMARK  241  A    between atoms: _562  and  _565
REMARK  242  A    between atoms: _565  and  _566
REMARK  243  A    between atoms: _569  and  _571
REMARK  244  A    between atoms: _571  and  _572
REMARK  245  A    between atoms: _571  and  _574
REMARK  246  A    between atoms: _574  and  _575
REMARK  247  A    between atoms: _575  and  _576
REMARK  248  A    between atoms: _581  and  _583
REMARK  249  A    between atoms: _583  and  _584
REMARK  250  A    between atoms: _583  and  _586
REMARK  251  A    between atoms: _586  and  _587
REMARK  252  A    between atoms: _590  and  _592
REMARK  253  A    between atoms: _592  and  _593
REMARK  254  A    between atoms: _592  and  _595
REMARK  255  A    between atoms: _595  and  _596
REMARK  256  A    between atoms: _601  and  _603
REMARK  257  A    between atoms: _603  and  _604
REMARK  258  A    between atoms: _607  and  _609
REMARK  259  A    between atoms: _609  and  _610
REMARK  260  A    between atoms: _609  and  _612
REMARK  261  A    between atoms: _612  and  _613
REMARK  262  A    between atoms: _616  and  _618
REMARK  263  A    between atoms: _618  and  _619
REMARK  264  A    between atoms: _618  and  _621
REMARK  265  A    between atoms: _624  and  _626
REMARK  266  A    between atoms: _626  and  _627
REMARK  267  A    between atoms: _626  and  _629
REMARK  268  A    between atoms: _629  and  _630
REMARK  269  A    between atoms: _630  and  _631
REMARK  270  A    between atoms: _631  and  _632
REMARK  271  A    between atoms: _641  and  _643
REMARK  272  A    between atoms: _643  and  _644
REMARK  273  A    between atoms: _643  and  _646
REMARK  274  A    between atoms: _646  and  _647
REMARK  275  A    between atoms: _650  and  _652
REMARK  276  A    between atoms: _652  and  _653
REMARK  277  A    between atoms: _652  and  _655
REMARK  278  A    between atoms: _655  and  _656
REMARK  279  A    between atoms: _659  and  _661
REMARK  280  A    between atoms: _661  and  _662
REMARK  281  A    between atoms: _661  and  _664
REMARK  282  A    between atoms: _664  and  _665
REMARK  283  A    between atoms: _665  and  _666
REMARK  284  A    between atoms: _666  and  _667
REMARK  285  A    between atoms: _676  and  _678
REMARK  286  A    between atoms: _678  and  _679
REMARK  287  A    between atoms: _678  and  _681
REMARK  288  A    between atoms: _681  and  _682
REMARK  289  A    between atoms: _682  and  _683
REMARK  290  A    between atoms: _688  and  _690
REMARK  291  A    between atoms: _690  and  _691
REMARK  292  A    between atoms: _690  and  _693
REMARK  293  A    between atoms: _696  and  _698
REMARK  294  A    between atoms: _698  and  _699
REMARK  295  A    between atoms: _698  and  _701
REMARK  296  A    between atoms: _701  and  _702
REMARK                            x       y       z     vdW  Elec       q    Type
REMARK                         _______ _______ _______ _____ _____    ______ ____
ROOT
ATOM      1  C   THR A   1      14.849  -3.005   3.606  0.00  0.00    +0.241 C 
ATOM      2  O   THR A   1      13.882  -3.055   4.365  0.00  0.00    -0.274 OA
ATOM      3  N   ASN A   2      15.351  -4.089   3.022  0.00  0.00    -0.298 N 
ATOM      4  H   ASN A   2      16.179  -4.007   2.398  0.00  0.00    +0.150 HD
ENDROOT
BRANCH   1   5
ATOM      5  CA  THR A   1      15.539  -1.671   3.307  0.00  0.00    +0.172 C 
BRANCH   5   6
ATOM      6  N   THR A   1      16.982  -1.797   3.463  0.00  0.00    -0.236 NA
ATOM      7  H   THR A   1      17.605  -1.558   2.665  0.00  0.00    +0.142 HD
ENDBRANCH   5   6
BRANCH   5   8
ATOM      8  CB  THR A   1      15.161  -1.221   1.877  0.00  0.00    +0.135 C 
ATOM      9  CG2 THR A   1      13.667  -1.387   1.641  0.00  0.00    +0.034 C 
BRANCH   8  10
ATOM     10  OG1 THR A   1      15.510   0.160   1.700  0.00  0.00    -0.383 OA
ATOM     11  HG1 THR A   1      16.484   0.273   1.835  0.00  0.00    +0.210 HD
ENDBRANCH   8  10
ENDBRANCH   5   8
ENDBRANCH   1   5
BRANCH   3  12
ATOM     12  CA  ASN A   2      14.742  -5.391   3.255  0.00  0.00    +0.146 C 
BRANCH  12  13
ATOM     13  C   ASN A   2      14.847  -5.865   4.696  0.00  0.00    +0.227 C 
ATOM     14  O   ASN A   2      13.934  -6.519   5.201  0.00  0.00    -0.286 OA
ENDBRANCH  12  13
BRANCH  12  15
ATOM     15  CB  ASN A   2      15.324  -6.430   2.295  0.00  0.00    +0.112 C 
BRANCH  15  16
ATOM     16  CG  ASN A   2      14.754  -6.287   0.896  0.00  0.00    +0.222 C 
ATOM     17  OD1 ASN A   2      13.537  -6.203   0.727  0.00  0.00    -0.275 OA
ATOM     18  ND2 ASN A   2      15.621  -6.256  -0.110  0.00  0.00    -0.329 N 
ATOM     19 HD21 ASN A   2      16.641  -6.330   0.080  0.00  0.00    +0.145 HD
ATOM     20 HD22 ASN A   2      15.280  -6.157  -1.088  0.00  0.00    +0.145 HD
ENDBRANCH  15  16
ENDBRANCH  12  15
ENDBRANCH   3  12
TORSDOF 8
REMARK  Name = ../refined-set-2016/3v2p/3v2p_pocket.pdb
REMARK  296 active torsions:
REMARK  status: ('A' for Active; 'I' for Inactive)
REMARK    1  A    between atoms: _1  and  _3
REMARK    2  A    between atoms: _3  and  _4
REMARK    3  A    between atoms: _3  and  _6
REMARK    4  A    between atoms: _6  and  _7
REMARK    5  A    between atoms: _7  and  _8
REMARK    6  A    between atoms: _10  and  _12
REMARK    7  A    between atoms: _12  and  _13
REMARK    8  A    between atoms: _12  and  _15
REMARK    9  A    between atoms: _15  and  _16
REMARK   10  A    between atoms: _16  and  _17
REMARK   11  A    between atoms: _20  and  _22
REMARK   12  A    between atoms: _22  and  _23
REMARK   13  A    between atoms: _22  and  _25
REMARK   14  A    between atoms: _25  and  _26
REMARK   15  A    between atoms: _29  and  _31
REMARK   16  A    between atoms: _31  and  _32
REMARK   17  A    between atoms: _31  and  _34
REMARK   18  A    between atoms: _34  and  _35
REMARK   19  A    between atoms: _38  and  _40
REMARK   20  A    between atoms: _40  and  _41
REMARK   21  A    between atoms: _40  and  _43
REMARK   22  A    between atoms: _43  and  _44
REMARK   23  A    between atoms: _49  and  _51
REMARK   24  A    between atoms: _51  and  _52
REMARK   25  A    between atoms: _55  and  _57
REMARK   26  A    between atoms: _57  and  _58
REMARK   27  A    between atoms: _57  and  _60
REMARK   28  A    between atoms: _60  and  _61
REMARK   29  A    between atoms: _64  and  _66
REMARK   30  A    between atoms: _66  and  _67
REMARK   31  A    between atoms: _66  and  _69
REMARK   32  A    between atoms: _72  and  _74
REMARK   33  A    between atoms: _74  and  _75
REMARK   34  A    between atoms: _74  and  _77
REMARK   35  A    between atoms: _77  and  _78
REMARK   36  A    between atoms: _78  and  _79
REMARK   37  A    between atoms: _79  and  _80
REMARK   38  A    between atoms: _89  and  _91
REMARK   39  A    between atoms: _91  and  _92
REMARK   40  A    between atoms: _91  and  _94
REMARK   41  A    between atoms: _94  and  _95
REMARK   42  A    between atoms: _98  and  _100
REMARK   43  A    between atoms: _100  and  _101
REMARK   44  A    between atoms: _100  and  _103
REMARK   45  A    between atoms: _103  and  _104
REMARK   46  A    between atoms: _107  and  _109
REMARK   47  A    between atoms: _109  and  _110
REMARK   48  A    between atoms: _109  and  _112
REMARK   49  A    between atoms: _112  and  _113
REMARK   50  A    between atoms: _113  and  _114
REMARK   51  A    between atoms: _119  and  _121
REMARK   52  A    between atoms: _121  and  _122
REMARK   53  A    between atoms: _121  and  _124
REMARK   54  A    between atoms: _127  and  _129
REMARK   55  A    between atoms: _129  and  _130
REMARK   56  A    between atoms: _129  and  _132
REMARK   57  A    between atoms: _132  and  _133
REMARK   58  A    between atoms: _136  and  _138
REMARK   59  A    between atoms: _138  and  _139
REMARK   60  A    between atoms: _138  and  _141
REMARK   61  A    between atoms: _141  and  _142
REMARK   62  A    between atoms: _142  and  _143
REMARK   63  A    between atoms: _145  and  _147
REMARK   64  A    between atoms: _147  and  _148
REMARK   65  A    between atoms: _147  and  _150
REMARK   66  A    between atoms: _150  and  _151
REMARK   67  A    between atoms: _151  and  _152
REMARK   68  A    between atoms: _155  and  _157
REMARK   69  A    between atoms: _157  and  _158
REMARK   70  A    between atoms: _157  and  _160
REMARK   71  A    between atoms: _160  and  _161
REMARK   72  A    between atoms: _164  and  _166
REMARK   73  A    between atoms: _166  and  _167
REMARK   74  A    between atoms: _166  and  _169
REMARK   75  A    between atoms: _169  and  _170
REMARK   76  A    between atoms: _173  and  _175
REMARK   77  A    between atoms: _175  and  _176
REMARK   78  A    between atoms: _175  and  _178
REMARK   79  A    between atoms: _178  and  _179
REMARK   80  A    between atoms: _184  and  _186
REMARK   81  A    between atoms: _186  and  _187
REMARK   82  A    between atoms: _190  and  _192
REMARK   83  A    between atoms: _192  and  _193
REMARK   84  A    between atoms: _192  and  _195
REMARK   85  A    between atoms: _195  and  _196
REMARK   86  A    between atoms: _199  and  _201
REMARK   87  A    between atoms: _201  and  _202
REMARK   88  A    between atoms: _201  and  _204
REMARK   89  A    between atoms: _207  and  _209
REMARK   90  A    between atoms: _209  and  _210
REMARK   91  A    between atoms: _209  and  _212
REMARK   92  A    between atoms: _212  and  _213
REMARK   93  A    between atoms: _213  and  _214
REMARK   94  A    between atoms: _214  and  _215
REMARK   95  A    between atoms: _224  and  _226
REMARK   96  A    between atoms: _226  and  _227
REMARK   97  A    between atoms: _226  and  _229
REMARK   98  A    between atoms: _229  and  _230
REMARK   99  A    between atoms: _233  and  _235
REMARK  100  A    between atoms: _235  and  _236
REMARK  101  A    between atoms: _235  and  _238
REMARK  102  A    between atoms: _238  and  _239
REMARK  103  A    between atoms: _242  and  _244
REMARK  104  A    between atoms: _244  and  _245
REMARK  105  A    between atoms: _244  and  _247
REMARK  106  A    between atoms: _247  and  _248
REMARK  107  A    between atoms: _248  and  _249
REMARK  108  A    between atoms: _254  and  _256
REMARK  109  A    between atoms: _256  and  _257
REMARK  110  A    between atoms: _256  and  _259
REMARK  111  A    between atoms: _262  and  _264
REMARK  112  A    between atoms: _264  and  _265
REMARK  113  A    between atoms: _264  and  _267
REMARK  114  A    between atoms: _267  and  _268
REMARK  115  A    between atoms: _271  and  _273
REMARK  116  A    between atoms: _273  and  _274
REMARK  117  A    between atoms: _273  and  _276
REMARK  118  A    between atoms: _276  and  _277
REMARK  119  A    between atoms: _277  and  _278
REMARK  120  A    between atoms: _280  and  _282
REMARK  121  A    between atoms: _282  and  _283
REMARK  122  A    between atoms: _282  and  _285
REMARK  123  A    between atoms: _285  and  _286
REMARK  124  A    between atoms: _286  and  _287
REMARK  125  A    between atoms: _290  and  _292
REMARK  126  A    between atoms: _292  and  _293
REMARK  127  A    between atoms: _292  and  _295
REMARK  128  A    between atoms: _295  and  _296
REMARK  129  A    between atoms: _299  and  _301
REMARK  130  A    between atoms: _301  and  _302
REMARK  131  A    between atoms: _301  and  _304
REMARK  132  A    between atoms: _304  and  _305
REMARK  133  A    between atoms: _308  and  _310
REMARK  134  A    between atoms: _310  and  _311
REMARK  135  A    between atoms: _310  and  _313
REMARK  136  A    between atoms: _313  and  _314
REMARK  137  A    between atoms: _319  and  _321
REMARK  138  A    between atoms: _321  and  _322
REMARK  139  A    between atoms: _325  and  _327
REMARK  140  A    between atoms: _327  and  _328
REMARK  141  A    between atoms: _327  and  _330
REMARK  142  A    between atoms: _330  and  _331
REMARK  143  A    between atoms: _334  and  _336
REMARK  144  A    between atoms: _336  and  _337
REMARK  145  A    between atoms: _336  and  _339
REMARK  146  A    between atoms: _342  and  _344
REMARK  147  A    between atoms: _344  and  _345
REMARK  148  A    between atoms: _344  and  _347
REMARK  149  A    between atoms: _347  and  _348
REMARK  150  A    between atoms: _348  and  _349
REMARK  151  A    between atoms: _349  and  _350
REMARK  152  A    between atoms: _359  and  _361
REMARK  153  A    between atoms: _361  and  _362
REMARK  154  A    between atoms: _361  and  _364
REMARK  155  A    between atoms: _364  and  _365
REMARK  156  A    between atoms: _368  and  _370
REMARK  157  A    between atoms: _370  and  _371
REMARK  158  A    between atoms: _370  and  _373
REMARK  159  A    between atoms: _373  and  _374
REMARK  160  A    between atoms: _377  and  _379
REMARK  161  A    between atoms: _379  and  _380
REMARK  162  A    between atoms: _379  and  _382
REMARK  163  A    between atoms: _382  and  _383
REMARK  164  A    between atoms: _383  and  _384
REMARK  165  A    between atoms: _389  and  _391
REMARK  166  A    between atoms: _391  and  _392
REMARK  167  A    between atoms: _391  and  _394
REMARK  168  A    between atoms: _397  and  _399
REMARK  169  A    between atoms: _399  and  _400
REMARK  170  A    between atoms: _399  and  _402
REMARK  171  A    between atoms: _402  and  _403
REMARK  172  A    between atoms: _406  and  _408
REMARK  173  A    between atoms: _408  and  _409
REMARK  174  A    between atoms: _408  and  _411
REMARK  175  A    between atoms: _411  and  _412
REMARK  176  A    between atoms: _412  and  _413
REMARK  177  A    between atoms: _415  and  _417
REMARK  178  A    between atoms: _417  and  _418
REMARK  179  A    between atoms: _417  and  _420
REMARK  180  A    between atoms: _420  and  _421
REMARK  181  A    between atoms: _421  and  _422
REMARK  182  A    between atoms: _425  and  _427
REMARK  183  A    between atoms: _427  and  _428
REMARK  184  A    between atoms: _427  and  _430
REMARK  185  A    between atoms: _430  and  _431
REMARK  186  A    between atoms: _434  and  _436
REMARK  187  A    between atoms: _436  and  _437
REMARK  188  A    between atoms: _436  and  _439
REMARK  189  A    between atoms: _439  and  _440
REMARK  190  A    between atoms: _443  and  _445
REMARK  191  A    between atoms: _445  and  _446
REMARK  192  A    between atoms: _445  and  _448
REMARK  193  A    between atoms: _448  and  _449
REMARK  194  A    between atoms: _454  and  _456
REMARK  195  A    between atoms: _456  and  _457
REMARK  196  A    between atoms: _460  and  _462
REMARK  197  A    between atoms: _462  and  _463
REMARK  198  A    between atoms: _462  and  _465
REMARK  199  A    between atoms: _465  and  _466
REMARK  200  A    between atoms: _469  and  _471
REMARK  201  A    between atoms: _471  and  _472
REMARK  202  A    between atoms: _471  and  _474
REMARK  203  A    between atoms: _477  and  _479
REMARK  204  A    between atoms: _479  and  _480
REMARK  205  A    between atoms: _479  and  _482
REMARK  206  A    between atoms: _482  and  _483
REMARK  207  A    between atoms: _483  and  _484
REMARK  208  A    between atoms: _484  and  _485
REMARK  209  A    between atoms: _494  and  _496
REMARK  210  A    between atoms: _496  and  _497
REMARK  211  A    between atoms: _496  and  _499
REMARK  212  A    between atoms: _499  and  _500
REMARK  213  A    between atoms: _503  and  _505
REMARK  214  A    between atoms: _505  and  _506
REMARK  215  A    between atoms: _505  and  _508
REMARK  216  A    between atoms: _508  and  _509
REMARK  217  A    between atoms: _512  and  _514
REMARK  218  A    between atoms: _514  and  _515
REMARK  219  A    between atoms: _514  and  _517
REMARK  220  A    between atoms: _517  and  _518
REMARK  221  A    between atoms: _518  and  _519
REMARK  222  A    between atoms: _524  and  _526
REMARK  223  A    between atoms: _526  and  _527
REMARK  224  A    between atoms: _526  and  _529
REMARK  225  A    between atoms: _532  and  _534
REMARK  226  A    between atoms: _534  and  _535
REMARK  227  A    between atoms: _534  and  _537
REMARK  228  A    between atoms: _537  and  _538
REMARK  229  A    between atoms: _541  and  _543
REMARK  230  A    between atoms: _543  and  _544
REMARK  231  A    between atoms: _543  and  _546
REMARK  232  A    between atoms: _546  and  _547
REMARK  233  A    between atoms: _547  and  _548
REMARK  234  A    between atoms: _550  and  _552
REMARK  235  A    between atoms: _552  and  _553
REMARK  236  A    between atoms: _552  and  _555
REMARK  237  A    between atoms: _555  and  _556
REMARK  238  A    between atoms: _556  and  _557
REMARK  239  A    between atoms: _560  and  _562
REMARK  240  A    between atoms: _562  and  _563
REMARK  241  A    between atoms: _562  and  _565
REMARK  242  A    between atoms: _565  and  _566
REMARK  243  A    between atoms: _569  and  _571
REMARK  244  A    between atoms: _571  and  _572
REMARK  245  A    between atoms: _571  and  _574
REMARK  246  A    between atoms: _574  and  _575
REMARK  247  A    between atoms: _575  and  _576
REMARK  248  A    between atoms: _581  and  _583
REMARK  249  A    between atoms: _583  and  _584
REMARK  250  A    between atoms: _583  and  _586
REMARK  251  A    between atoms: _586  and  _587
REMARK  252  A    between atoms: _590  and  _592
REMARK  253  A    between atoms: _592  and  _593
REMARK  254  A    between atoms: _592  and  _595
REMARK  255  A    between atoms: _595  and  _596
REMARK  256  A    between atoms: _601  and  _603
REMARK  257  A    between atoms: _603  and  _604
REMARK  258  A    between atoms: _607  and  _609
REMARK  259  A    between atoms: _609  and  _610
REMARK  260  A    between atoms: _609  and  _612
REMARK  261  A    between atoms: _612  and  _613
REMARK  262  A    between atoms: _616  and  _618
REMARK  263  A    between atoms: _618  and  _619
REMARK  264  A    between atoms: _618  and  _621
REMARK  265  A    between atoms: _624  and  _626
REMARK  266  A    between atoms: _626  and  _627
REMARK  267  A    between atoms: _626  and  _629
REMARK  268  A    between atoms: _629  and  _630
REMARK  269  A    between atoms: _630  and  _631
REMARK  270  A    between atoms: _631  and  _632
REMARK  271  A    between atoms: _641  and  _643
REMARK  272  A    between atoms: _643  and  _644
REMARK  273  A    between atoms: _643  and  _646
REMARK  274  A    between atoms: _646  and  _647
REMARK  275  A    between atoms: _650  and  _652
REMARK  276  A    between atoms: _652  and  _653
REMARK  277  A    between atoms: _652  and  _655
REMARK  278  A    between atoms: _655  and  _656
REMARK  279  A    between atoms: _659  and  _661
REMARK  280  A    between atoms: _661  and  _662
REMARK  281  A    between atoms: _661  and  _664
REMARK  282  A    between atoms: _664  and  _665
REMARK  283  A    between atoms: _665  and  _666
REMARK  284  A    between atoms: _666  and  _667
REMARK  285  A    between atoms: _676  and  _678
REMARK  286  A    between atoms: _678  and  _679
REMARK  287  A    between atoms: _678  and  _681
REMARK  288  A    between atoms: _681  and  _682
REMARK  289  A    between atoms: _682  and  _683
REMARK  290  A    between atoms: _688  and  _690
REMARK  291  A    between atoms: _690  and  _691
REMARK  292  A    between atoms: _690  and  _693
REMARK  293  A    between atoms: _696  and  _698
REMARK  294  A    between atoms: _698  and  _699
REMARK  295  A    between atoms: _698  and  _701
REMARK  296  A    between atoms: _701  and  _702
REMARK                            x       y       z     vdW  Elec       q    Type
REMARK                         _______ _______ _______ _____ _____    ______ ____
ROOT
ATOM      1  C   ALA A   1      12.556  -3.638   7.758  0.00  0.00    +0.238 C 
ATOM      2  O   ALA A   1      11.768  -3.770   8.688  0.00  0.00    -0.274 OA
ATOM      3  N   LEU A   2      12.256  -3.998   6.514  0.00  0.00    -0.298 N 
ATOM      4  H   LEU A   2      12.959  -3.888   5.756  0.00  0.00    +0.150 HD
ENDROOT
BRANCH   1   5
ATOM      5  CA  ALA A   1      13.954  -3.079   7.994  0.00  0.00    +0.145 C 
ATOM      6  CB  ALA A   1      14.039  -1.630   7.503  0.00  0.00    +0.028 C 
BRANCH   5   7
ATOM      7  N   ALA A   1      14.912  -3.912   7.280  0.00  0.00    -0.238 NA
ATOM      8  H   ALA A   1      15.455  -3.499   6.495  0.00  0.00    +0.142 HD
ENDBRANCH   5   7
ENDBRANCH   1   5
BRANCH   3   9
ATOM      9  CA  LEU A   2      10.941  -4.546   6.215  0.00  0.00    +0.137 C 
BRANCH   9  10
ATOM     10  C   LEU A   2      10.697  -5.886   6.896  0.00  0.00    +0.227 C 
ATOM     11  O   LEU A   2       9.568  -6.189   7.267  0.00  0.00    -0.286 OA
ENDBRANCH   9  10
BRANCH   9  12
ATOM     12  CB  LEU A   2      10.741  -4.689   4.710  0.00  0.00    +0.028 C 
BRANCH  12  13
ATOM     13  CG  LEU A   2      10.315  -3.395   4.022  0.00  0.00    +0.002 C 
ATOM     14  CD2 LEU A   2       8.973  -2.921   4.592  0.00  0.00    +0.000 C 
ATOM     15  CD1 LEU A   2      10.203  -3.643   2.524  0.00  0.00    +0.000 C 
ENDBRANCH  12  13
ENDBRANCH   9  12
ENDBRANCH   3   9
TORSDOF 6
REMARK  Name = ../refined-set-2016/3v2p/3v2p_pocket.pdb
REMARK  296 active torsions:
REMARK  status: ('A' for Active; 'I' for Inactive)
REMARK    1  A    between atoms: _1  and  _3
REMARK    2  A    between atoms: _3  and  _4
REMARK    3  A    between atoms: _3  and  _6
REMARK    4  A    between atoms: _6  and  _7
REMARK    5  A    between atoms: _7  and  _8
REMARK    6  A    between atoms: _10  and  _12
REMARK    7  A    between atoms: _12  and  _13
REMARK    8  A    between atoms: _12  and  _15
REMARK    9  A    between atoms: _15  and  _16
REMARK   10  A    between atoms: _16  and  _17
REMARK   11  A    between atoms: _20  and  _22
REMARK   12  A    between atoms: _22  and  _23
REMARK   13  A    between atoms: _22  and  _25
REMARK   14  A    between atoms: _25  and  _26
REMARK   15  A    between atoms: _29  and  _31
REMARK   16  A    between atoms: _31  and  _32
REMARK   17  A    between atoms: _31  and  _34
REMARK   18  A    between atoms: _34  and  _35
REMARK   19  A    between atoms: _38  and  _40
REMARK   20  A    between atoms: _40  and  _41
REMARK   21  A    between atoms: _40  and  _43
REMARK   22  A    between atoms: _43  and  _44
REMARK   23  A    between atoms: _49  and  _51
REMARK   24  A    between atoms: _51  and  _52
REMARK   25  A    between atoms: _55  and  _57
REMARK   26  A    between atoms: _57  and  _58
REMARK   27  A    between atoms: _57  and  _60
REMARK   28  A    between atoms: _60  and  _61
REMARK   29  A    between atoms: _64  and  _66
REMARK   30  A    between atoms: _66  and  _67
REMARK   31  A    between atoms: _66  and  _69
REMARK   32  A    between atoms: _72  and  _74
REMARK   33  A    between atoms: _74  and  _75
REMARK   34  A    between atoms: _74  and  _77
REMARK   35  A    between atoms: _77  and  _78
REMARK   36  A    between atoms: _78  and  _79
REMARK   37  A    between atoms: _79  and  _80
REMARK   38  A    between atoms: _89  and  _91
REMARK   39  A    between atoms: _91  and  _92
REMARK   40  A    between atoms: _91  and  _94
REMARK   41  A    between atoms: _94  and  _95
REMARK   42  A    between atoms: _98  and  _100
REMARK   43  A    between atoms: _100  and  _101
REMARK   44  A    between atoms: _100  and  _103
REMARK   45  A    between atoms: _103  and  _104
REMARK   46  A    between atoms: _107  and  _109
REMARK   47  A    between atoms: _109  and  _110
REMARK   48  A    between atoms: _109  and  _112
REMARK   49  A    between atoms: _112  and  _113
REMARK   50  A    between atoms: _113  and  _114
REMARK   51  A    between atoms: _119  and  _121
REMARK   52  A    between atoms: _121  and  _122
REMARK   53  A    between atoms: _121  and  _124
REMARK   54  A    between atoms: _127  and  _129
REMARK   55  A    between atoms: _129  and  _130
REMARK   56  A    between atoms: _129  and  _132
REMARK   57  A    between atoms: _132  and  _133
REMARK   58  A    between atoms: _136  and  _138
REMARK   59  A    between atoms: _138  and  _139
REMARK   60  A    between atoms: _138  and  _141
REMARK   61  A    between atoms: _141  and  _142
REMARK   62  A    between atoms: _142  and  _143
REMARK   63  A    between atoms: _145  and  _147
REMARK   64  A    between atoms: _147  and  _148
REMARK   65  A    between atoms: _147  and  _150
REMARK   66  A    between atoms: _150  and  _151
REMARK   67  A    between atoms: _151  and  _152
REMARK   68  A    between atoms: _155  and  _157
REMARK   69  A    between atoms: _157  and  _158
REMARK   70  A    between atoms: _157  and  _160
REMARK   71  A    between atoms: _160  and  _161
REMARK   72  A    between atoms: _164  and  _166
REMARK   73  A    between atoms: _166  and  _167
REMARK   74  A    between atoms: _166  and  _169
REMARK   75  A    between atoms: _169  and  _170
REMARK   76  A    between atoms: _173  and  _175
REMARK   77  A    between atoms: _175  and  _176
REMARK   78  A    between atoms: _175  and  _178
REMARK   79  A    between atoms: _178  and  _179
REMARK   80  A    between atoms: _184  and  _186
REMARK   81  A    between atoms: _186  and  _187
REMARK   82  A    between atoms: _190  and  _192
REMARK   83  A    between atoms: _192  and  _193
REMARK   84  A    between atoms: _192  and  _195
REMARK   85  A    between atoms: _195  and  _196
REMARK   86  A    between atoms: _199  and  _201
REMARK   87  A    between atoms: _201  and  _202
REMARK   88  A    between atoms: _201  and  _204
REMARK   89  A    between atoms: _207  and  _209
REMARK   90  A    between atoms: _209  and  _210
REMARK   91  A    between atoms: _209  and  _212
REMARK   92  A    between atoms: _212  and  _213
REMARK   93  A    between atoms: _213  and  _214
REMARK   94  A    between atoms: _214  and  _215
REMARK   95  A    between atoms: _224  and  _226
REMARK   96  A    between atoms: _226  and  _227
REMARK   97  A    between atoms: _226  and  _229
REMARK   98  A    between atoms: _229  and  _230
REMARK   99  A    between atoms: _233  and  _235
REMARK  100  A    between atoms: _235  and  _236
REMARK  101  A    between atoms: _235  and  _238
REMARK  102  A    between atoms: _238  and  _239
REMARK  103  A    between atoms: _242  and  _244
REMARK  104  A    between atoms: _244  and  _245
REMARK  105  A    between atoms: _244  and  _247
REMARK  106  A    between atoms: _247  and  _248
REMARK  107  A    between atoms: _248  and  _249
REMARK  108  A    between atoms: _254  and  _256
REMARK  109  A    between atoms: _256  and  _257
REMARK  110  A    between atoms: _256  and  _259
REMARK  111  A    between atoms: _262  and  _264
REMARK  112  A    between atoms: _264  and  _265
REMARK  113  A    between atoms: _264  and  _267
REMARK  114  A    between atoms: _267  and  _268
REMARK  115  A    between atoms: _271  and  _273
REMARK  116  A    between atoms: _273  and  _274
REMARK  117  A    between atoms: _273  and  _276
REMARK  118  A    between atoms: _276  and  _277
REMARK  119  A    between atoms: _277  and  _278
REMARK  120  A    between atoms: _280  and  _282
REMARK  121  A    between atoms: _282  and  _283
REMARK  122  A    between atoms: _282  and  _285
REMARK  123  A    between atoms: _285  and  _286
REMARK  124  A    between atoms: _286  and  _287
REMARK  125  A    between atoms: _290  and  _292
REMARK  126  A    between atoms: _292  and  _293
REMARK  127  A    between atoms: _292  and  _295
REMARK  128  A    between atoms: _295  and  _296
REMARK  129  A    between atoms: _299  and  _301
REMARK  130  A    between atoms: _301  and  _302
REMARK  131  A    between atoms: _301  and  _304
REMARK  132  A    between atoms: _304  and  _305
REMARK  133  A    between atoms: _308  and  _310
REMARK  134  A    between atoms: _310  and  _311
REMARK  135  A    between atoms: _310  and  _313
REMARK  136  A    between atoms: _313  and  _314
REMARK  137  A    between atoms: _319  and  _321
REMARK  138  A    between atoms: _321  and  _322
REMARK  139  A    between atoms: _325  and  _327
REMARK  140  A    between atoms: _327  and  _328
REMARK  141  A    between atoms: _327  and  _330
REMARK  142  A    between atoms: _330  and  _331
REMARK  143  A    between atoms: _334  and  _336
REMARK  144  A    between atoms: _336  and  _337
REMARK  145  A    between atoms: _336  and  _339
REMARK  146  A    between atoms: _342  and  _344
REMARK  147  A    between atoms: _344  and  _345
REMARK  148  A    between atoms: _344  and  _347
REMARK  149  A    between atoms: _347  and  _348
REMARK  150  A    between atoms: _348  and  _349
REMARK  151  A    between atoms: _349  and  _350
REMARK  152  A    between atoms: _359  and  _361
REMARK  153  A    between atoms: _361  and  _362
REMARK  154  A    between atoms: _361  and  _364
REMARK  155  A    between atoms: _364  and  _365
REMARK  156  A    between atoms: _368  and  _370
REMARK  157  A    between atoms: _370  and  _371
REMARK  158  A    between atoms: _370  and  _373
REMARK  159  A    between atoms: _373  and  _374
REMARK  160  A    between atoms: _377  and  _379
REMARK  161  A    between atoms: _379  and  _380
REMARK  162  A    between atoms: _379  and  _382
REMARK  163  A    between atoms: _382  and  _383
REMARK  164  A    between atoms: _383  and  _384
REMARK  165  A    between atoms: _389  and  _391
REMARK  166  A    between atoms: _391  and  _392
REMARK  167  A    between atoms: _391  and  _394
REMARK  168  A    between atoms: _397  and  _399
REMARK  169  A    between atoms: _399  and  _400
REMARK  170  A    between atoms: _399  and  _402
REMARK  171  A    between atoms: _402  and  _403
REMARK  172  A    between atoms: _406  and  _408
REMARK  173  A    between atoms: _408  and  _409
REMARK  174  A    between atoms: _408  and  _411
REMARK  175  A    between atoms: _411  and  _412
REMARK  176  A    between atoms: _412  and  _413
REMARK  177  A    between atoms: _415  and  _417
REMARK  178  A    between atoms: _417  and  _418
REMARK  179  A    between atoms: _417  and  _420
REMARK  180  A    between atoms: _420  and  _421
REMARK  181  A    between atoms: _421  and  _422
REMARK  182  A    between atoms: _425  and  _427
REMARK  183  A    between atoms: _427  and  _428
REMARK  184  A    between atoms: _427  and  _430
REMARK  185  A    between atoms: _430  and  _431
REMARK  186  A    between atoms: _434  and  _436
REMARK  187  A    between atoms: _436  and  _437
REMARK  188  A    between atoms: _436  and  _439
REMARK  189  A    between atoms: _439  and  _440
REMARK  190  A    between atoms: _443  and  _445
REMARK  191  A    between atoms: _445  and  _446
REMARK  192  A    between atoms: _445  and  _448
REMARK  193  A    between atoms: _448  and  _449
REMARK  194  A    between atoms: _454  and  _456
REMARK  195  A    between atoms: _456  and  _457
REMARK  196  A    between atoms: _460  and  _462
REMARK  197  A    between atoms: _462  and  _463
REMARK  198  A    between atoms: _462  and  _465
REMARK  199  A    between atoms: _465  and  _466
REMARK  200  A    between atoms: _469  and  _471
REMARK  201  A    between atoms: _471  and  _472
REMARK  202  A    between atoms: _471  and  _474
REMARK  203  A    between atoms: _477  and  _479
REMARK  204  A    between atoms: _479  and  _480
REMARK  205  A    between atoms: _479  and  _482
REMARK  206  A    between atoms: _482  and  _483
REMARK  207  A    between atoms: _483  and  _484
REMARK  208  A    between atoms: _484  and  _485
REMARK  209  A    between atoms: _494  and  _496
REMARK  210  A    between atoms: _496  and  _497
REMARK  211  A    between atoms: _496  and  _499
REMARK  212  A    between atoms: _499  and  _500
REMARK  213  A    between atoms: _503  and  _505
REMARK  214  A    between atoms: _505  and  _506
REMARK  215  A    between atoms: _505  and  _508
REMARK  216  A    between atoms: _508  and  _509
REMARK  217  A    between atoms: _512  and  _514
REMARK  218  A    between atoms: _514  and  _515
REMARK  219  A    between atoms: _514  and  _517
REMARK  220  A    between atoms: _517  and  _518
REMARK  221  A    between atoms: _518  and  _519
REMARK  222  A    between atoms: _524  and  _526
REMARK  223  A    between atoms: _526  and  _527
REMARK  224  A    between atoms: _526  and  _529
REMARK  225  A    between atoms: _532  and  _534
REMARK  226  A    between atoms: _534  and  _535
REMARK  227  A    between atoms: _534  and  _537
REMARK  228  A    between atoms: _537  and  _538
REMARK  229  A    between atoms: _541  and  _543
REMARK  230  A    between atoms: _543  and  _544
REMARK  231  A    between atoms: _543  and  _546
REMARK  232  A    between atoms: _546  and  _547
REMARK  233  A    between atoms: _547  and  _548
REMARK  234  A    between atoms: _550  and  _552
REMARK  235  A    between atoms: _552  and  _553
REMARK  236  A    between atoms: _552  and  _555
REMARK  237  A    between atoms: _555  and  _556
REMARK  238  A    between atoms: _556  and  _557
REMARK  239  A    between atoms: _560  and  _562
REMARK  240  A    between atoms: _562  and  _563
REMARK  241  A    between atoms: _562  and  _565
REMARK  242  A    between atoms: _565  and  _566
REMARK  243  A    between atoms: _569  and  _571
REMARK  244  A    between atoms: _571  and  _572
REMARK  245  A    between atoms: _571  and  _574
REMARK  246  A    between atoms: _574  and  _575
REMARK  247  A    between atoms: _575  and  _576
REMARK  248  A    between atoms: _581  and  _583
REMARK  249  A    between atoms: _583  and  _584
REMARK  250  A    between atoms: _583  and  _586
REMARK  251  A    between atoms: _586  and  _587
REMARK  252  A    between atoms: _590  and  _592
REMARK  253  A    between atoms: _592  and  _593
REMARK  254  A    between atoms: _592  and  _595
REMARK  255  A    between atoms: _595  and  _596
REMARK  256  A    between atoms: _601  and  _603
REMARK  257  A    between atoms: _603  and  _604
REMARK  258  A    between atoms: _607  and  _609
REMARK  259  A    between atoms: _609  and  _610
REMARK  260  A    between atoms: _609  and  _612
REMARK  261  A    between atoms: _612  and  _613
REMARK  262  A    between atoms: _616  and  _618
REMARK  263  A    between atoms: _618  and  _619
REMARK  264  A    between atoms: _618  and  _621
REMARK  265  A    between atoms: _624  and  _626
REMARK  266  A    between atoms: _626  and  _627
REMARK  267  A    between atoms: _626  and  _629
REMARK  268  A    between atoms: _629  and  _630
REMARK  269  A    between atoms: _630  and  _631
REMARK  270  A    between atoms: _631  and  _632
REMARK  271  A    between atoms: _641  and  _643
REMARK  272  A    between atoms: _643  and  _644
REMARK  273  A    between atoms: _643  and  _646
REMARK  274  A    between atoms: _646  and  _647
REMARK  275  A    between atoms: _650  and  _652
REMARK  276  A    between atoms: _652  and  _653
REMARK  277  A    between atoms: _652  and  _655
REMARK  278  A    between atoms: _655  and  _656
REMARK  279  A    between atoms: _659  and  _661
REMARK  280  A    between atoms: _661  and  _662
REMARK  281  A    between atoms: _661  and  _664
REMARK  282  A    between atoms: _664  and  _665
REMARK  283  A    between atoms: _665  and  _666
REMARK  284  A    between atoms: _666  and  _667
REMARK  285  A    between atoms: _676  and  _678
REMARK  286  A    between atoms: _678  and  _679
REMARK  287  A    between atoms: _678  and  _681
REMARK  288  A    between atoms: _681  and  _682
REMARK  289  A    between atoms: _682  and  _683
REMARK  290  A    between atoms: _688  and  _690
REMARK  291  A    between atoms: _690  and  _691
REMARK  292  A    between atoms: _690  and  _693
REMARK  293  A    between atoms: _696  and  _698
REMARK  294  A    between atoms: _698  and  _699
REMARK  295  A    between atoms: _698  and  _701
REMARK  296  A    between atoms: _701  and  _702
REMARK                            x       y       z     vdW  Elec       q    Type
REMARK                         _______ _______ _______ _____ _____    ______ ____
ROOT
ATOM      1  CA  ARG A   2       6.542  -7.516   8.921  0.00  0.00    +0.137 C 
ENDROOT
BRANCH   1   4
ATOM      2  C   VAL A   1       7.201  -5.438   9.981  0.00  0.00    +0.238 C 
ATOM      3  O   VAL A   1       6.157  -5.405  10.628  0.00  0.00    -0.274 OA
ATOM      4  N   ARG A   2       7.484  -6.429   9.139  0.00  0.00    -0.298 N 
ATOM      5  H   ARG A   2       8.391  -6.426   8.630  0.00  0.00    +0.150 HD
BRANCH   2   6
ATOM      6  CA  VAL A   1       8.259  -4.336  10.123  0.00  0.00    +0.145 C 
BRANCH   6   7
ATOM      7  CB  VAL A   1       8.181  -3.382   8.900  0.00  0.00    +0.025 C 
ATOM      8  CG2 VAL A   1       8.962  -2.102   9.198  0.00  0.00    +0.002 C 
ATOM      9  CG1 VAL A   1       6.730  -3.056   8.564  0.00  0.00    +0.002 C 
ENDBRANCH   6   7
BRANCH   6  10
ATOM     10  N   VAL A   1       9.592  -4.918  10.225  0.00  0.00    -0.238 NA
ATOM     11  H   VAL A   1      10.319  -4.640   9.535  0.00  0.00    +0.142 HD
ENDBRANCH   6  10
ENDBRANCH   2   6
ENDBRANCH   1   4
BRANCH   1  12
ATOM     12  C   ARG A   2       6.329  -8.347  10.192  0.00  0.00    +0.227 C 
ATOM     13  O   ARG A   2       5.197  -8.701  10.532  0.00  0.00    -0.286 OA
ENDBRANCH   1  12
BRANCH   1  14
ATOM     14  CB  ARG A   2       7.043  -8.405   7.773  0.00  0.00    +0.031 C 
BRANCH  14  15
ATOM     15  CG  ARG A   2       6.101  -9.529   7.381  0.00  0.00    +0.045 C 
BRANCH  15  16
ATOM     16  CD  ARG A   2       6.594 -10.239   6.109  0.00  0.00    +0.174 C 
BRANCH  16  17
ATOM     17  NE  ARG A   2       7.974 -10.699   6.239  0.00  0.00    -0.265 N 
ATOM     18  HE  ARG A   2       8.418 -10.638   7.177  0.00  0.00    +0.259 HD
ATOM     19  CZ  ARG A   2       8.703 -11.191   5.238  0.00  0.00    +0.342 C 
ATOM     20  NH2 ARG A   2       9.958 -11.565   5.454  0.00  0.00    -0.292 N 
ATOM     21 HH21 ARG A   2      10.372 -11.474   6.404  0.00  0.00    +0.255 HD
ATOM     22 HH22 ARG A   2      10.528 -11.949   4.673  0.00  0.00    +0.255 HD
ATOM     23  NH1 ARG A   2       8.187 -11.296   4.022  0.00  0.00    -0.292 N 
ATOM     24 HH11 ARG A   2       7.208 -10.994   3.845  0.00  0.00    +0.255 HD
ATOM     25 HH12 ARG A   2       8.761 -11.681   3.245  0.00  0.00    +0.255 HD
ENDBRANCH  16  17
ENDBRANCH  15  16
ENDBRANCH  14  15
ENDBRANCH   1  14
TORSDOF 9
REMARK  Name = ../refined-set-2016/3v2p/3v2p_pocket.pdb
REMARK  296 active torsions:
REMARK  status: ('A' for Active; 'I' for Inactive)
REMARK    1  A    between atoms: _1  and  _3
REMARK    2  A    between atoms: _3  and  _4
REMARK    3  A    between atoms: _3  and  _6
REMARK    4  A    between atoms: _6  and  _7
REMARK    5  A    between atoms: _7  and  _8
REMARK    6  A    between atoms: _10  and  _12
REMARK    7  A    between atoms: _12  and  _13
REMARK    8  A    between atoms: _12  and  _15
REMARK    9  A    between atoms: _15  and  _16
REMARK   10  A    between atoms: _16  and  _17
REMARK   11  A    between atoms: _20  and  _22
REMARK   12  A    between atoms: _22  and  _23
REMARK   13  A    between atoms: _22  and  _25
REMARK   14  A    between atoms: _25  and  _26
REMARK   15  A    between atoms: _29  and  _31
REMARK   16  A    between atoms: _31  and  _32
REMARK   17  A    between atoms: _31  and  _34
REMARK   18  A    between atoms: _34  and  _35
REMARK   19  A    between atoms: _38  and  _40
REMARK   20  A    between atoms: _40  and  _41
REMARK   21  A    between atoms: _40  and  _43
REMARK   22  A    between atoms: _43  and  _44
REMARK   23  A    between atoms: _49  and  _51
REMARK   24  A    between atoms: _51  and  _52
REMARK   25  A    between atoms: _55  and  _57
REMARK   26  A    between atoms: _57  and  _58
REMARK   27  A    between atoms: _57  and  _60
REMARK   28  A    between atoms: _60  and  _61
REMARK   29  A    between atoms: _64  and  _66
REMARK   30  A    between atoms: _66  and  _67
REMARK   31  A    between atoms: _66  and  _69
REMARK   32  A    between atoms: _72  and  _74
REMARK   33  A    between atoms: _74  and  _75
REMARK   34  A    between atoms: _74  and  _77
REMARK   35  A    between atoms: _77  and  _78
REMARK   36  A    between atoms: _78  and  _79
REMARK   37  A    between atoms: _79  and  _80
REMARK   38  A    between atoms: _89  and  _91
REMARK   39  A    between atoms: _91  and  _92
REMARK   40  A    between atoms: _91  and  _94
REMARK   41  A    between atoms: _94  and  _95
REMARK   42  A    between atoms: _98  and  _100
REMARK   43  A    between atoms: _100  and  _101
REMARK   44  A    between atoms: _100  and  _103
REMARK   45  A    between atoms: _103  and  _104
REMARK   46  A    between atoms: _107  and  _109
REMARK   47  A    between atoms: _109  and  _110
REMARK   48  A    between atoms: _109  and  _112
REMARK   49  A    between atoms: _112  and  _113
REMARK   50  A    between atoms: _113  and  _114
REMARK   51  A    between atoms: _119  and  _121
REMARK   52  A    between atoms: _121  and  _122
REMARK   53  A    between atoms: _121  and  _124
REMARK   54  A    between atoms: _127  and  _129
REMARK   55  A    between atoms: _129  and  _130
REMARK   56  A    between atoms: _129  and  _132
REMARK   57  A    between atoms: _132  and  _133
REMARK   58  A    between atoms: _136  and  _138
REMARK   59  A    between atoms: _138  and  _139
REMARK   60  A    between atoms: _138  and  _141
REMARK   61  A    between atoms: _141  and  _142
REMARK   62  A    between atoms: _142  and  _143
REMARK   63  A    between atoms: _145  and  _147
REMARK   64  A    between atoms: _147  and  _148
REMARK   65  A    between atoms: _147  and  _150
REMARK   66  A    between atoms: _150  and  _151
REMARK   67  A    between atoms: _151  and  _152
REMARK   68  A    between atoms: _155  and  _157
REMARK   69  A    between atoms: _157  and  _158
REMARK   70  A    between atoms: _157  and  _160
REMARK   71  A    between atoms: _160  and  _161
REMARK   72  A    between atoms: _164  and  _166
REMARK   73  A    between atoms: _166  and  _167
REMARK   74  A    between atoms: _166  and  _169
REMARK   75  A    between atoms: _169  and  _170
REMARK   76  A    between atoms: _173  and  _175
REMARK   77  A    between atoms: _175  and  _176
REMARK   78  A    between atoms: _175  and  _178
REMARK   79  A    between atoms: _178  and  _179
REMARK   80  A    between atoms: _184  and  _186
REMARK   81  A    between atoms: _186  and  _187
REMARK   82  A    between atoms: _190  and  _192
REMARK   83  A    between atoms: _192  and  _193
REMARK   84  A    between atoms: _192  and  _195
REMARK   85  A    between atoms: _195  and  _196
REMARK   86  A    between atoms: _199  and  _201
REMARK   87  A    between atoms: _201  and  _202
REMARK   88  A    between atoms: _201  and  _204
REMARK   89  A    between atoms: _207  and  _209
REMARK   90  A    between atoms: _209  and  _210
REMARK   91  A    between atoms: _209  and  _212
REMARK   92  A    between atoms: _212  and  _213
REMARK   93  A    between atoms: _213  and  _214
REMARK   94  A    between atoms: _214  and  _215
REMARK   95  A    between atoms: _224  and  _226
REMARK   96  A    between atoms: _226  and  _227
REMARK   97  A    between atoms: _226  and  _229
REMARK   98  A    between atoms: _229  and  _230
REMARK   99  A    between atoms: _233  and  _235
REMARK  100  A    between atoms: _235  and  _236
REMARK  101  A    between atoms: _235  and  _238
REMARK  102  A    between atoms: _238  and  _239
REMARK  103  A    between atoms: _242  and  _244
REMARK  104  A    between atoms: _244  and  _245
REMARK  105  A    between atoms: _244  and  _247
REMARK  106  A    between atoms: _247  and  _248
REMARK  107  A    between atoms: _248  and  _249
REMARK  108  A    between atoms: _254  and  _256
REMARK  109  A    between atoms: _256  and  _257
REMARK  110  A    between atoms: _256  and  _259
REMARK  111  A    between atoms: _262  and  _264
REMARK  112  A    between atoms: _264  and  _265
REMARK  113  A    between atoms: _264  and  _267
REMARK  114  A    between atoms: _267  and  _268
REMARK  115  A    between atoms: _271  and  _273
REMARK  116  A    between atoms: _273  and  _274
REMARK  117  A    between atoms: _273  and  _276
REMARK  118  A    between atoms: _276  and  _277
REMARK  119  A    between atoms: _277  and  _278
REMARK  120  A    between atoms: _280  and  _282
REMARK  121  A    between atoms: _282  and  _283
REMARK  122  A    between atoms: _282  and  _285
REMARK  123  A    between atoms: _285  and  _286
REMARK  124  A    between atoms: _286  and  _287
REMARK  125  A    between atoms: _290  and  _292
REMARK  126  A    between atoms: _292  and  _293
REMARK  127  A    between atoms: _292  and  _295
REMARK  128  A    between atoms: _295  and  _296
REMARK  129  A    between atoms: _299  and  _301
REMARK  130  A    between atoms: _301  and  _302
REMARK  131  A    between atoms: _301  and  _304
REMARK  132  A    between atoms: _304  and  _305
REMARK  133  A    between atoms: _308  and  _310
REMARK  134  A    between atoms: _310  and  _311
REMARK  135  A    between atoms: _310  and  _313
REMARK  136  A    between atoms: _313  and  _314
REMARK  137  A    between atoms: _319  and  _321
REMARK  138  A    between atoms: _321  and  _322
REMARK  139  A    between atoms: _325  and  _327
REMARK  140  A    between atoms: _327  and  _328
REMARK  141  A    between atoms: _327  and  _330
REMARK  142  A    between atoms: _330  and  _331
REMARK  143  A    between atoms: _334  and  _336
REMARK  144  A    between atoms: _336  and  _337
REMARK  145  A    between atoms: _336  and  _339
REMARK  146  A    between atoms: _342  and  _344
REMARK  147  A    between atoms: _344  and  _345
REMARK  148  A    between atoms: _344  and  _347
REMARK  149  A    between atoms: _347  and  _348
REMARK  150  A    between atoms: _348  and  _349
REMARK  151  A    between atoms: _349  and  _350
REMARK  152  A    between atoms: _359  and  _361
REMARK  153  A    between atoms: _361  and  _362
REMARK  154  A    between atoms: _361  and  _364
REMARK  155  A    between atoms: _364  and  _365
REMARK  156  A    between atoms: _368  and  _370
REMARK  157  A    between atoms: _370  and  _371
REMARK  158  A    between atoms: _370  and  _373
REMARK  159  A    between atoms: _373  and  _374
REMARK  160  A    between atoms: _377  and  _379
REMARK  161  A    between atoms: _379  and  _380
REMARK  162  A    between atoms: _379  and  _382
REMARK  163  A    between atoms: _382  and  _383
REMARK  164  A    between atoms: _383  and  _384
REMARK  165  A    between atoms: _389  and  _391
REMARK  166  A    between atoms: _391  and  _392
REMARK  167  A    between atoms: _391  and  _394
REMARK  168  A    between atoms: _397  and  _399
REMARK  169  A    between atoms: _399  and  _400
REMARK  170  A    between atoms: _399  and  _402
REMARK  171  A    between atoms: _402  and  _403
REMARK  172  A    between atoms: _406  and  _408
REMARK  173  A    between atoms: _408  and  _409
REMARK  174  A    between atoms: _408  and  _411
REMARK  175  A    between atoms: _411  and  _412
REMARK  176  A    between atoms: _412  and  _413
REMARK  177  A    between atoms: _415  and  _417
REMARK  178  A    between atoms: _417  and  _418
REMARK  179  A    between atoms: _417  and  _420
REMARK  180  A    between atoms: _420  and  _421
REMARK  181  A    between atoms: _421  and  _422
REMARK  182  A    between atoms: _425  and  _427
REMARK  183  A    between atoms: _427  and  _428
REMARK  184  A    between atoms: _427  and  _430
REMARK  185  A    between atoms: _430  and  _431
REMARK  186  A    between atoms: _434  and  _436
REMARK  187  A    between atoms: _436  and  _437
REMARK  188  A    between atoms: _436  and  _439
REMARK  189  A    between atoms: _439  and  _440
REMARK  190  A    between atoms: _443  and  _445
REMARK  191  A    between atoms: _445  and  _446
REMARK  192  A    between atoms: _445  and  _448
REMARK  193  A    between atoms: _448  and  _449
REMARK  194  A    between atoms: _454  and  _456
REMARK  195  A    between atoms: _456  and  _457
REMARK  196  A    between atoms: _460  and  _462
REMARK  197  A    between atoms: _462  and  _463
REMARK  198  A    between atoms: _462  and  _465
REMARK  199  A    between atoms: _465  and  _466
REMARK  200  A    between atoms: _469  and  _471
REMARK  201  A    between atoms: _471  and  _472
REMARK  202  A    between atoms: _471  and  _474
REMARK  203  A    between atoms: _477  and  _479
REMARK  204  A    between atoms: _479  and  _480
REMARK  205  A    between atoms: _479  and  _482
REMARK  206  A    between atoms: _482  and  _483
REMARK  207  A    between atoms: _483  and  _484
REMARK  208  A    between atoms: _484  and  _485
REMARK  209  A    between atoms: _494  and  _496
REMARK  210  A    between atoms: _496  and  _497
REMARK  211  A    between atoms: _496  and  _499
REMARK  212  A    between atoms: _499  and  _500
REMARK  213  A    between atoms: _503  and  _505
REMARK  214  A    between atoms: _505  and  _506
REMARK  215  A    between atoms: _505  and  _508
REMARK  216  A    between atoms: _508  and  _509
REMARK  217  A    between atoms: _512  and  _514
REMARK  218  A    between atoms: _514  and  _515
REMARK  219  A    between atoms: _514  and  _517
REMARK  220  A    between atoms: _517  and  _518
REMARK  221  A    between atoms: _518  and  _519
REMARK  222  A    between atoms: _524  and  _526
REMARK  223  A    between atoms: _526  and  _527
REMARK  224  A    between atoms: _526  and  _529
REMARK  225  A    between atoms: _532  and  _534
REMARK  226  A    between atoms: _534  and  _535
REMARK  227  A    between atoms: _534  and  _537
REMARK  228  A    between atoms: _537  and  _538
REMARK  229  A    between atoms: _541  and  _543
REMARK  230  A    between atoms: _543  and  _544
REMARK  231  A    between atoms: _543  and  _546
REMARK  232  A    between atoms: _546  and  _547
REMARK  233  A    between atoms: _547  and  _548
REMARK  234  A    between atoms: _550  and  _552
REMARK  235  A    between atoms: _552  and  _553
REMARK  236  A    between atoms: _552  and  _555
REMARK  237  A    between atoms: _555  and  _556
REMARK  238  A    between atoms: _556  and  _557
REMARK  239  A    between atoms: _560  and  _562
REMARK  240  A    between atoms: _562  and  _563
REMARK  241  A    between atoms: _562  and  _565
REMARK  242  A    between atoms: _565  and  _566
REMARK  243  A    between atoms: _569  and  _571
REMARK  244  A    between atoms: _571  and  _572
REMARK  245  A    between atoms: _571  and  _574
REMARK  246  A    between atoms: _574  and  _575
REMARK  247  A    between atoms: _575  and  _576
REMARK  248  A    between atoms: _581  and  _583
REMARK  249  A    between atoms: _583  and  _584
REMARK  250  A    between atoms: _583  and  _586
REMARK  251  A    between atoms: _586  and  _587
REMARK  252  A    between atoms: _590  and  _592
REMARK  253  A    between atoms: _592  and  _593
REMARK  254  A    between atoms: _592  and  _595
REMARK  255  A    between atoms: _595  and  _596
REMARK  256  A    between atoms: _601  and  _603
REMARK  257  A    between atoms: _603  and  _604
REMARK  258  A    between atoms: _607  and  _609
REMARK  259  A    between atoms: _609  and  _610
REMARK  260  A    between atoms: _609  and  _612
REMARK  261  A    between atoms: _612  and  _613
REMARK  262  A    between atoms: _616  and  _618
REMARK  263  A    between atoms: _618  and  _619
REMARK  264  A    between atoms: _618  and  _621
REMARK  265  A    between atoms: _624  and  _626
REMARK  266  A    between atoms: _626  and  _627
REMARK  267  A    between atoms: _626  and  _629
REMARK  268  A    between atoms: _629  and  _630
REMARK  269  A    between atoms: _630  and  _631
REMARK  270  A    between atoms: _631  and  _632
REMARK  271  A    between atoms: _641  and  _643
REMARK  272  A    between atoms: _643  and  _644
REMARK  273  A    between atoms: _643  and  _646
REMARK  274  A    between atoms: _646  and  _647
REMARK  275  A    between atoms: _650  and  _652
REMARK  276  A    between atoms: _652  and  _653
REMARK  277  A    between atoms: _652  and  _655
REMARK  278  A    between atoms: _655  and  _656
REMARK  279  A    between atoms: _659  and  _661
REMARK  280  A    between atoms: _661  and  _662
REMARK  281  A    between atoms: _661  and  _664
REMARK  282  A    between atoms: _664  and  _665
REMARK  283  A    between atoms: _665  and  _666
REMARK  284  A    between atoms: _666  and  _667
REMARK  285  A    between atoms: _676  and  _678
REMARK  286  A    between atoms: _678  and  _679
REMARK  287  A    between atoms: _678  and  _681
REMARK  288  A    between atoms: _681  and  _682
REMARK  289  A    between atoms: _682  and  _683
REMARK  290  A    between atoms: _688  and  _690
REMARK  291  A    between atoms: _690  and  _691
REMARK  292  A    between atoms: _690  and  _693
REMARK  293  A    between atoms: _696  and  _698
REMARK  294  A    between atoms: _698  and  _699
REMARK  295  A    between atoms: _698  and  _701
REMARK  296  A    between atoms: _701  and  _702
REMARK                            x       y       z     vdW  Elec       q    Type
REMARK                         _______ _______ _______ _____ _____    ______ ____
ROOT
ATOM      1  C   LEU A   1       4.561  -6.497  13.913  0.00  0.00    +0.238 C 
ATOM      2  O   LEU A   1       3.713  -6.631  14.799  0.00  0.00    -0.274 OA
ATOM      3  N   LEU A   2       4.246  -6.318  12.639  0.00  0.00    -0.298 N 
ATOM      4  H   LEU A   2       5.004  -6.213  11.935  0.00  0.00    +0.150 HD
ENDROOT
BRANCH   1   5
ATOM      5  CA  LEU A   1       6.051  -6.533  14.234  0.00  0.00    +0.145 C 
BRANCH   5   6
ATOM      6  N   LEU A   1       6.762  -7.369  13.268  0.00  0.00    -0.238 NA
ATOM      7  H   LEU A   1       7.457  -6.929  12.631  0.00  0.00    +0.142 HD
ENDBRANCH   5   6
BRANCH   5   8
ATOM      8  CB  LEU A   1       6.619  -5.104  14.225  0.00  0.00    +0.026 C 
BRANCH   8   9
ATOM      9  CG  LEU A   1       7.985  -4.915  14.892  0.00  0.00    +0.002 C 
ATOM     10  CD2 LEU A   1       7.815  -5.057  16.407  0.00  0.00    +0.000 C 
ATOM     11  CD1 LEU A   1       8.569  -3.555  14.535  0.00  0.00    +0.000 C 
ENDBRANCH   8   9
ENDBRANCH   5   8
ENDBRANCH   1   5
BRANCH   3  12
ATOM     12  CA  LEU A   2       2.858  -6.266  12.207  0.00  0.00    +0.137 C 
BRANCH  12  13
ATOM     13  C   LEU A   2       2.199  -7.611  12.495  0.00  0.00    +0.227 C 
ATOM     14  O   LEU A   2       1.049  -7.663  12.925  0.00  0.00    -0.286 OA
ENDBRANCH  12  13
BRANCH  12  15
ATOM     15  CB  LEU A   2       2.782  -5.930  10.710  0.00  0.00    +0.028 C 
BRANCH  15  16
ATOM     16  CG  LEU A   2       1.426  -5.664  10.053  0.00  0.00    +0.002 C 
ATOM     17  CD2 LEU A   2       0.642  -4.621  10.839  0.00  0.00    +0.000 C 
ATOM     18  CD1 LEU A   2       1.659  -5.188   8.613  0.00  0.00    +0.000 C 
ENDBRANCH  15  16
ENDBRANCH  12  15
ENDBRANCH   3  12
TORSDOF 8
REMARK  Name = ../refined-set-2016/3v2p/3v2p_pocket.pdb
REMARK  296 active torsions:
REMARK  status: ('A' for Active; 'I' for Inactive)
REMARK    1  A    between atoms: _1  and  _3
REMARK    2  A    between atoms: _3  and  _4
REMARK    3  A    between atoms: _3  and  _6
REMARK    4  A    between atoms: _6  and  _7
REMARK    5  A    between atoms: _7  and  _8
REMARK    6  A    between atoms: _10  and  _12
REMARK    7  A    between atoms: _12  and  _13
REMARK    8  A    between atoms: _12  and  _15
REMARK    9  A    between atoms: _15  and  _16
REMARK   10  A    between atoms: _16  and  _17
REMARK   11  A    between atoms: _20  and  _22
REMARK   12  A    between atoms: _22  and  _23
REMARK   13  A    between atoms: _22  and  _25
REMARK   14  A    between atoms: _25  and  _26
REMARK   15  A    between atoms: _29  and  _31
REMARK   16  A    between atoms: _31  and  _32
REMARK   17  A    between atoms: _31  and  _34
REMARK   18  A    between atoms: _34  and  _35
REMARK   19  A    between atoms: _38  and  _40
REMARK   20  A    between atoms: _40  and  _41
REMARK   21  A    between atoms: _40  and  _43
REMARK   22  A    between atoms: _43  and  _44
REMARK   23  A    between atoms: _49  and  _51
REMARK   24  A    between atoms: _51  and  _52
REMARK   25  A    between atoms: _55  and  _57
REMARK   26  A    between atoms: _57  and  _58
REMARK   27  A    between atoms: _57  and  _60
REMARK   28  A    between atoms: _60  and  _61
REMARK   29  A    between atoms: _64  and  _66
REMARK   30  A    between atoms: _66  and  _67
REMARK   31  A    between atoms: _66  and  _69
REMARK   32  A    between atoms: _72  and  _74
REMARK   33  A    between atoms: _74  and  _75
REMARK   34  A    between atoms: _74  and  _77
REMARK   35  A    between atoms: _77  and  _78
REMARK   36  A    between atoms: _78  and  _79
REMARK   37  A    between atoms: _79  and  _80
REMARK   38  A    between atoms: _89  and  _91
REMARK   39  A    between atoms: _91  and  _92
REMARK   40  A    between atoms: _91  and  _94
REMARK   41  A    between atoms: _94  and  _95
REMARK   42  A    between atoms: _98  and  _100
REMARK   43  A    between atoms: _100  and  _101
REMARK   44  A    between atoms: _100  and  _103
REMARK   45  A    between atoms: _103  and  _104
REMARK   46  A    between atoms: _107  and  _109
REMARK   47  A    between atoms: _109  and  _110
REMARK   48  A    between atoms: _109  and  _112
REMARK   49  A    between atoms: _112  and  _113
REMARK   50  A    between atoms: _113  and  _114
REMARK   51  A    between atoms: _119  and  _121
REMARK   52  A    between atoms: _121  and  _122
REMARK   53  A    between atoms: _121  and  _124
REMARK   54  A    between atoms: _127  and  _129
REMARK   55  A    between atoms: _129  and  _130
REMARK   56  A    between atoms: _129  and  _132
REMARK   57  A    between atoms: _132  and  _133
REMARK   58  A    between atoms: _136  and  _138
REMARK   59  A    between atoms: _138  and  _139
REMARK   60  A    between atoms: _138  and  _141
REMARK   61  A    between atoms: _141  and  _142
REMARK   62  A    between atoms: _142  and  _143
REMARK   63  A    between atoms: _145  and  _147
REMARK   64  A    between atoms: _147  and  _148
REMARK   65  A    between atoms: _147  and  _150
REMARK   66  A    between atoms: _150  and  _151
REMARK   67  A    between atoms: _151  and  _152
REMARK   68  A    between atoms: _155  and  _157
REMARK   69  A    between atoms: _157  and  _158
REMARK   70  A    between atoms: _157  and  _160
REMARK   71  A    between atoms: _160  and  _161
REMARK   72  A    between atoms: _164  and  _166
REMARK   73  A    between atoms: _166  and  _167
REMARK   74  A    between atoms: _166  and  _169
REMARK   75  A    between atoms: _169  and  _170
REMARK   76  A    between atoms: _173  and  _175
REMARK   77  A    between atoms: _175  and  _176
REMARK   78  A    between atoms: _175  and  _178
REMARK   79  A    between atoms: _178  and  _179
REMARK   80  A    between atoms: _184  and  _186
REMARK   81  A    between atoms: _186  and  _187
REMARK   82  A    between atoms: _190  and  _192
REMARK   83  A    between atoms: _192  and  _193
REMARK   84  A    between atoms: _192  and  _195
REMARK   85  A    between atoms: _195  and  _196
REMARK   86  A    between atoms: _199  and  _201
REMARK   87  A    between atoms: _201  and  _202
REMARK   88  A    between atoms: _201  and  _204
REMARK   89  A    between atoms: _207  and  _209
REMARK   90  A    between atoms: _209  and  _210
REMARK   91  A    between atoms: _209  and  _212
REMARK   92  A    between atoms: _212  and  _213
REMARK   93  A    between atoms: _213  and  _214
REMARK   94  A    between atoms: _214  and  _215
REMARK   95  A    between atoms: _224  and  _226
REMARK   96  A    between atoms: _226  and  _227
REMARK   97  A    between atoms: _226  and  _229
REMARK   98  A    between atoms: _229  and  _230
REMARK   99  A    between atoms: _233  and  _235
REMARK  100  A    between atoms: _235  and  _236
REMARK  101  A    between atoms: _235  and  _238
REMARK  102  A    between atoms: _238  and  _239
REMARK  103  A    between atoms: _242  and  _244
REMARK  104  A    between atoms: _244  and  _245
REMARK  105  A    between atoms: _244  and  _247
REMARK  106  A    between atoms: _247  and  _248
REMARK  107  A    between atoms: _248  and  _249
REMARK  108  A    between atoms: _254  and  _256
REMARK  109  A    between atoms: _256  and  _257
REMARK  110  A    between atoms: _256  and  _259
REMARK  111  A    between atoms: _262  and  _264
REMARK  112  A    between atoms: _264  and  _265
REMARK  113  A    between atoms: _264  and  _267
REMARK  114  A    between atoms: _267  and  _268
REMARK  115  A    between atoms: _271  and  _273
REMARK  116  A    between atoms: _273  and  _274
REMARK  117  A    between atoms: _273  and  _276
REMARK  118  A    between atoms: _276  and  _277
REMARK  119  A    between atoms: _277  and  _278
REMARK  120  A    between atoms: _280  and  _282
REMARK  121  A    between atoms: _282  and  _283
REMARK  122  A    between atoms: _282  and  _285
REMARK  123  A    between atoms: _285  and  _286
REMARK  124  A    between atoms: _286  and  _287
REMARK  125  A    between atoms: _290  and  _292
REMARK  126  A    between atoms: _292  and  _293
REMARK  127  A    between atoms: _292  and  _295
REMARK  128  A    between atoms: _295  and  _296
REMARK  129  A    between atoms: _299  and  _301
REMARK  130  A    between atoms: _301  and  _302
REMARK  131  A    between atoms: _301  and  _304
REMARK  132  A    between atoms: _304  and  _305
REMARK  133  A    between atoms: _308  and  _310
REMARK  134  A    between atoms: _310  and  _311
REMARK  135  A    between atoms: _310  and  _313
REMARK  136  A    between atoms: _313  and  _314
REMARK  137  A    between atoms: _319  and  _321
REMARK  138  A    between atoms: _321  and  _322
REMARK  139  A    between atoms: _325  and  _327
REMARK  140  A    between atoms: _327  and  _328
REMARK  141  A    between atoms: _327  and  _330
REMARK  142  A    between atoms: _330  and  _331
REMARK  143  A    between atoms: _334  and  _336
REMARK  144  A    between atoms: _336  and  _337
REMARK  145  A    between atoms: _336  and  _339
REMARK  146  A    between atoms: _342  and  _344
REMARK  147  A    between atoms: _344  and  _345
REMARK  148  A    between atoms: _344  and  _347
REMARK  149  A    between atoms: _347  and  _348
REMARK  150  A    between atoms: _348  and  _349
REMARK  151  A    between atoms: _349  and  _350
REMARK  152  A    between atoms: _359  and  _361
REMARK  153  A    between atoms: _361  and  _362
REMARK  154  A    between atoms: _361  and  _364
REMARK  155  A    between atoms: _364  and  _365
REMARK  156  A    between atoms: _368  and  _370
REMARK  157  A    between atoms: _370  and  _371
REMARK  158  A    between atoms: _370  and  _373
REMARK  159  A    between atoms: _373  and  _374
REMARK  160  A    between atoms: _377  and  _379
REMARK  161  A    between atoms: _379  and  _380
REMARK  162  A    between atoms: _379  and  _382
REMARK  163  A    between atoms: _382  and  _383
REMARK  164  A    between atoms: _383  and  _384
REMARK  165  A    between atoms: _389  and  _391
REMARK  166  A    between atoms: _391  and  _392
REMARK  167  A    between atoms: _391  and  _394
REMARK  168  A    between atoms: _397  and  _399
REMARK  169  A    between atoms: _399  and  _400
REMARK  170  A    between atoms: _399  and  _402
REMARK  171  A    between atoms: _402  and  _403
REMARK  172  A    between atoms: _406  and  _408
REMARK  173  A    between atoms: _408  and  _409
REMARK  174  A    between atoms: _408  and  _411
REMARK  175  A    between atoms: _411  and  _412
REMARK  176  A    between atoms: _412  and  _413
REMARK  177  A    between atoms: _415  and  _417
REMARK  178  A    between atoms: _417  and  _418
REMARK  179  A    between atoms: _417  and  _420
REMARK  180  A    between atoms: _420  and  _421
REMARK  181  A    between atoms: _421  and  _422
REMARK  182  A    between atoms: _425  and  _427
REMARK  183  A    between atoms: _427  and  _428
REMARK  184  A    between atoms: _427  and  _430
REMARK  185  A    between atoms: _430  and  _431
REMARK  186  A    between atoms: _434  and  _436
REMARK  187  A    between atoms: _436  and  _437
REMARK  188  A    between atoms: _436  and  _439
REMARK  189  A    between atoms: _439  and  _440
REMARK  190  A    between atoms: _443  and  _445
REMARK  191  A    between atoms: _445  and  _446
REMARK  192  A    between atoms: _445  and  _448
REMARK  193  A    between atoms: _448  and  _449
REMARK  194  A    between atoms: _454  and  _456
REMARK  195  A    between atoms: _456  and  _457
REMARK  196  A    between atoms: _460  and  _462
REMARK  197  A    between atoms: _462  and  _463
REMARK  198  A    between atoms: _462  and  _465
REMARK  199  A    between atoms: _465  and  _466
REMARK  200  A    between atoms: _469  and  _471
REMARK  201  A    between atoms: _471  and  _472
REMARK  202  A    between atoms: _471  and  _474
REMARK  203  A    between atoms: _477  and  _479
REMARK  204  A    between atoms: _479  and  _480
REMARK  205  A    between atoms: _479  and  _482
REMARK  206  A    between atoms: _482  and  _483
REMARK  207  A    between atoms: _483  and  _484
REMARK  208  A    between atoms: _484  and  _485
REMARK  209  A    between atoms: _494  and  _496
REMARK  210  A    between atoms: _496  and  _497
REMARK  211  A    between atoms: _496  and  _499
REMARK  212  A    between atoms: _499  and  _500
REMARK  213  A    between atoms: _503  and  _505
REMARK  214  A    between atoms: _505  and  _506
REMARK  215  A    between atoms: _505  and  _508
REMARK  216  A    between atoms: _508  and  _509
REMARK  217  A    between atoms: _512  and  _514
REMARK  218  A    between atoms: _514  and  _515
REMARK  219  A    between atoms: _514  and  _517
REMARK  220  A    between atoms: _517  and  _518
REMARK  221  A    between atoms: _518  and  _519
REMARK  222  A    between atoms: _524  and  _526
REMARK  223  A    between atoms: _526  and  _527
REMARK  224  A    between atoms: _526  and  _529
REMARK  225  A    between atoms: _532  and  _534
REMARK  226  A    between atoms: _534  and  _535
REMARK  227  A    between atoms: _534  and  _537
REMARK  228  A    between atoms: _537  and  _538
REMARK  229  A    between atoms: _541  and  _543
REMARK  230  A    between atoms: _543  and  _544
REMARK  231  A    between atoms: _543  and  _546
REMARK  232  A    between atoms: _546  and  _547
REMARK  233  A    between atoms: _547  and  _548
REMARK  234  A    between atoms: _550  and  _552
REMARK  235  A    between atoms: _552  and  _553
REMARK  236  A    between atoms: _552  and  _555
REMARK  237  A    between atoms: _555  and  _556
REMARK  238  A    between atoms: _556  and  _557
REMARK  239  A    between atoms: _560  and  _562
REMARK  240  A    between atoms: _562  and  _563
REMARK  241  A    between atoms: _562  and  _565
REMARK  242  A    between atoms: _565  and  _566
REMARK  243  A    between atoms: _569  and  _571
REMARK  244  A    between atoms: _571  and  _572
REMARK  245  A    between atoms: _571  and  _574
REMARK  246  A    between atoms: _574  and  _575
REMARK  247  A    between atoms: _575  and  _576
REMARK  248  A    between atoms: _581  and  _583
REMARK  249  A    between atoms: _583  and  _584
REMARK  250  A    between atoms: _583  and  _586
REMARK  251  A    between atoms: _586  and  _587
REMARK  252  A    between atoms: _590  and  _592
REMARK  253  A    between atoms: _592  and  _593
REMARK  254  A    between atoms: _592  and  _595
REMARK  255  A    between atoms: _595  and  _596
REMARK  256  A    between atoms: _601  and  _603
REMARK  257  A    between atoms: _603  and  _604
REMARK  258  A    between atoms: _607  and  _609
REMARK  259  A    between atoms: _609  and  _610
REMARK  260  A    between atoms: _609  and  _612
REMARK  261  A    between atoms: _612  and  _613
REMARK  262  A    between atoms: _616  and  _618
REMARK  263  A    between atoms: _618  and  _619
REMARK  264  A    between atoms: _618  and  _621
REMARK  265  A    between atoms: _624  and  _626
REMARK  266  A    between atoms: _626  and  _627
REMARK  267  A    between atoms: _626  and  _629
REMARK  268  A    between atoms: _629  and  _630
REMARK  269  A    between atoms: _630  and  _631
REMARK  270  A    between atoms: _631  and  _632
REMARK  271  A    between atoms: _641  and  _643
REMARK  272  A    between atoms: _643  and  _644
REMARK  273  A    between atoms: _643  and  _646
REMARK  274  A    between atoms: _646  and  _647
REMARK  275  A    between atoms: _650  and  _652
REMARK  276  A    between atoms: _652  and  _653
REMARK  277  A    between atoms: _652  and  _655
REMARK  278  A    between atoms: _655  and  _656
REMARK  279  A    between atoms: _659  and  _661
REMARK  280  A    between atoms: _661  and  _662
REMARK  281  A    between atoms: _661  and  _664
REMARK  282  A    between atoms: _664  and  _665
REMARK  283  A    between atoms: _665  and  _666
REMARK  284  A    between atoms: _666  and  _667
REMARK  285  A    between atoms: _676  and  _678
REMARK  286  A    between atoms: _678  and  _679
REMARK  287  A    between atoms: _678  and  _681
REMARK  288  A    between atoms: _681  and  _682
REMARK  289  A    between atoms: _682  and  _683
REMARK  290  A    between atoms: _688  and  _690
REMARK  291  A    between atoms: _690  and  _691
REMARK  292  A    between atoms: _690  and  _693
REMARK  293  A    between atoms: _696  and  _698
REMARK  294  A    between atoms: _698  and  _699
REMARK  295  A    between atoms: _698  and  _701
REMARK  296  A    between atoms: _701  and  _702
REMARK                            x       y       z     vdW  Elec       q    Type
REMARK                         _______ _______ _______ _____ _____    ______ ____
ROOT
ATOM      1  CA  GLN A   1       0.411  -6.736  16.378  0.00  0.00    +0.145 C 
ENDROOT
BRANCH   1   2
ATOM      2  C   GLN A   1      -0.978  -7.236  15.992  0.00  0.00    +0.238 C 
ATOM      3  O   GLN A   1      -1.946  -7.023  16.725  0.00  0.00    -0.274 OA
ATOM      4  N   VAL A   2      -1.081  -7.909  14.848  0.00  0.00    -0.298 N 
ATOM      5  H   VAL A   2      -0.237  -8.056  14.258  0.00  0.00    +0.150 HD
BRANCH   4   6
ATOM      6  CA  VAL A   2      -2.367  -8.442  14.415  0.00  0.00    +0.137 C 
BRANCH   6   7
ATOM      7  CB  VAL A   2      -2.267  -9.106  13.020  0.00  0.00    +0.026 C 
ATOM      8  CG2 VAL A   2      -3.592  -9.770  12.663  0.00  0.00    +0.002 C 
ATOM      9  CG1 VAL A   2      -1.895  -8.064  11.983  0.00  0.00    +0.002 C 
ENDBRANCH   6   7
BRANCH   6  10
ATOM     10  C   VAL A   2      -2.845  -9.493  15.410  0.00  0.00    +0.227 C 
ATOM     11  O   VAL A   2      -4.041  -9.619  15.664  0.00  0.00    -0.286 OA
ENDBRANCH   6  10
ENDBRANCH   4   6
ENDBRANCH   1   2
BRANCH   1  12
ATOM     12  N   GLN A   1       1.443  -7.707  16.055  0.00  0.00    -0.238 NA
ATOM     13  H   GLN A   1       2.148  -7.491  15.321  0.00  0.00    +0.142 HD
ENDBRANCH   1  12
BRANCH   1  14
ATOM     14  CB  GLN A   1       0.711  -5.396  15.702  0.00  0.00    +0.036 C 
BRANCH  14  15
ATOM     15  CG  GLN A   1      -0.248  -4.285  16.112  0.00  0.00    +0.087 C 
BRANCH  15  16
ATOM     16  CD  GLN A   1       0.141  -2.948  15.525  0.00  0.00    +0.219 C 
ATOM     17  OE1 GLN A   1       0.819  -2.143  16.163  0.00  0.00    -0.275 OA
ATOM     18  NE2 GLN A   1      -0.268  -2.713  14.294  0.00  0.00    -0.329 N 
ATOM     19 HE21 GLN A   1      -0.019  -1.819  13.825  0.00  0.00    +0.145 HD
ATOM     20 HE22 GLN A   1      -0.840  -3.422  13.792  0.00  0.00    +0.145 HD
ENDBRANCH  15  16
ENDBRANCH  14  15
ENDBRANCH   1  14
TORSDOF 8
REMARK  Name = ../refined-set-2016/3v2p/3v2p_pocket.pdb
REMARK  296 active torsions:
REMARK  status: ('A' for Active; 'I' for Inactive)
REMARK    1  A    between atoms: _1  and  _3
REMARK    2  A    between atoms: _3  and  _4
REMARK    3  A    between atoms: _3  and  _6
REMARK    4  A    between atoms: _6  and  _7
REMARK    5  A    between atoms: _7  and  _8
REMARK    6  A    between atoms: _10  and  _12
REMARK    7  A    between atoms: _12  and  _13
REMARK    8  A    between atoms: _12  and  _15
REMARK    9  A    between atoms: _15  and  _16
REMARK   10  A    between atoms: _16  and  _17
REMARK   11  A    between atoms: _20  and  _22
REMARK   12  A    between atoms: _22  and  _23
REMARK   13  A    between atoms: _22  and  _25
REMARK   14  A    between atoms: _25  and  _26
REMARK   15  A    between atoms: _29  and  _31
REMARK   16  A    between atoms: _31  and  _32
REMARK   17  A    between atoms: _31  and  _34
REMARK   18  A    between atoms: _34  and  _35
REMARK   19  A    between atoms: _38  and  _40
REMARK   20  A    between atoms: _40  and  _41
REMARK   21  A    between atoms: _40  and  _43
REMARK   22  A    between atoms: _43  and  _44
REMARK   23  A    between atoms: _49  and  _51
REMARK   24  A    between atoms: _51  and  _52
REMARK   25  A    between atoms: _55  and  _57
REMARK   26  A    between atoms: _57  and  _58
REMARK   27  A    between atoms: _57  and  _60
REMARK   28  A    between atoms: _60  and  _61
REMARK   29  A    between atoms: _64  and  _66
REMARK   30  A    between atoms: _66  and  _67
REMARK   31  A    between atoms: _66  and  _69
REMARK   32  A    between atoms: _72  and  _74
REMARK   33  A    between atoms: _74  and  _75
REMARK   34  A    between atoms: _74  and  _77
REMARK   35  A    between atoms: _77  and  _78
REMARK   36  A    between atoms: _78  and  _79
REMARK   37  A    between atoms: _79  and  _80
REMARK   38  A    between atoms: _89  and  _91
REMARK   39  A    between atoms: _91  and  _92
REMARK   40  A    between atoms: _91  and  _94
REMARK   41  A    between atoms: _94  and  _95
REMARK   42  A    between atoms: _98  and  _100
REMARK   43  A    between atoms: _100  and  _101
REMARK   44  A    between atoms: _100  and  _103
REMARK   45  A    between atoms: _103  and  _104
REMARK   46  A    between atoms: _107  and  _109
REMARK   47  A    between atoms: _109  and  _110
REMARK   48  A    between atoms: _109  and  _112
REMARK   49  A    between atoms: _112  and  _113
REMARK   50  A    between atoms: _113  and  _114
REMARK   51  A    between atoms: _119  and  _121
REMARK   52  A    between atoms: _121  and  _122
REMARK   53  A    between atoms: _121  and  _124
REMARK   54  A    between atoms: _127  and  _129
REMARK   55  A    between atoms: _129  and  _130
REMARK   56  A    between atoms: _129  and  _132
REMARK   57  A    between atoms: _132  and  _133
REMARK   58  A    between atoms: _136  and  _138
REMARK   59  A    between atoms: _138  and  _139
REMARK   60  A    between atoms: _138  and  _141
REMARK   61  A    between atoms: _141  and  _142
REMARK   62  A    between atoms: _142  and  _143
REMARK   63  A    between atoms: _145  and  _147
REMARK   64  A    between atoms: _147  and  _148
REMARK   65  A    between atoms: _147  and  _150
REMARK   66  A    between atoms: _150  and  _151
REMARK   67  A    between atoms: _151  and  _152
REMARK   68  A    between atoms: _155  and  _157
REMARK   69  A    between atoms: _157  and  _158
REMARK   70  A    between atoms: _157  and  _160
REMARK   71  A    between atoms: _160  and  _161
REMARK   72  A    between atoms: _164  and  _166
REMARK   73  A    between atoms: _166  and  _167
REMARK   74  A    between atoms: _166  and  _169
REMARK   75  A    between atoms: _169  and  _170
REMARK   76  A    between atoms: _173  and  _175
REMARK   77  A    between atoms: _175  and  _176
REMARK   78  A    between atoms: _175  and  _178
REMARK   79  A    between atoms: _178  and  _179
REMARK   80  A    between atoms: _184  and  _186
REMARK   81  A    between atoms: _186  and  _187
REMARK   82  A    between atoms: _190  and  _192
REMARK   83  A    between atoms: _192  and  _193
REMARK   84  A    between atoms: _192  and  _195
REMARK   85  A    between atoms: _195  and  _196
REMARK   86  A    between atoms: _199  and  _201
REMARK   87  A    between atoms: _201  and  _202
REMARK   88  A    between atoms: _201  and  _204
REMARK   89  A    between atoms: _207  and  _209
REMARK   90  A    between atoms: _209  and  _210
REMARK   91  A    between atoms: _209  and  _212
REMARK   92  A    between atoms: _212  and  _213
REMARK   93  A    between atoms: _213  and  _214
REMARK   94  A    between atoms: _214  and  _215
REMARK   95  A    between atoms: _224  and  _226
REMARK   96  A    between atoms: _226  and  _227
REMARK   97  A    between atoms: _226  and  _229
REMARK   98  A    between atoms: _229  and  _230
REMARK   99  A    between atoms: _233  and  _235
REMARK  100  A    between atoms: _235  and  _236
REMARK  101  A    between atoms: _235  and  _238
REMARK  102  A    between atoms: _238  and  _239
REMARK  103  A    between atoms: _242  and  _244
REMARK  104  A    between atoms: _244  and  _245
REMARK  105  A    between atoms: _244  and  _247
REMARK  106  A    between atoms: _247  and  _248
REMARK  107  A    between atoms: _248  and  _249
REMARK  108  A    between atoms: _254  and  _256
REMARK  109  A    between atoms: _256  and  _257
REMARK  110  A    between atoms: _256  and  _259
REMARK  111  A    between atoms: _262  and  _264
REMARK  112  A    between atoms: _264  and  _265
REMARK  113  A    between atoms: _264  and  _267
REMARK  114  A    between atoms: _267  and  _268
REMARK  115  A    between atoms: _271  and  _273
REMARK  116  A    between atoms: _273  and  _274
REMARK  117  A    between atoms: _273  and  _276
REMARK  118  A    between atoms: _276  and  _277
REMARK  119  A    between atoms: _277  and  _278
REMARK  120  A    between atoms: _280  and  _282
REMARK  121  A    between atoms: _282  and  _283
REMARK  122  A    between atoms: _282  and  _285
REMARK  123  A    between atoms: _285  and  _286
REMARK  124  A    between atoms: _286  and  _287
REMARK  125  A    between atoms: _290  and  _292
REMARK  126  A    between atoms: _292  and  _293
REMARK  127  A    between atoms: _292  and  _295
REMARK  128  A    between atoms: _295  and  _296
REMARK  129  A    between atoms: _299  and  _301
REMARK  130  A    between atoms: _301  and  _302
REMARK  131  A    between atoms: _301  and  _304
REMARK  132  A    between atoms: _304  and  _305
REMARK  133  A    between atoms: _308  and  _310
REMARK  134  A    between atoms: _310  and  _311
REMARK  135  A    between atoms: _310  and  _313
REMARK  136  A    between atoms: _313  and  _314
REMARK  137  A    between atoms: _319  and  _321
REMARK  138  A    between atoms: _321  and  _322
REMARK  139  A    between atoms: _325  and  _327
REMARK  140  A    between atoms: _327  and  _328
REMARK  141  A    between atoms: _327  and  _330
REMARK  142  A    between atoms: _330  and  _331
REMARK  143  A    between atoms: _334  and  _336
REMARK  144  A    between atoms: _336  and  _337
REMARK  145  A    between atoms: _336  and  _339
REMARK  146  A    between atoms: _342  and  _344
REMARK  147  A    between atoms: _344  and  _345
REMARK  148  A    between atoms: _344  and  _347
REMARK  149  A    between atoms: _347  and  _348
REMARK  150  A    between atoms: _348  and  _349
REMARK  151  A    between atoms: _349  and  _350
REMARK  152  A    between atoms: _359  and  _361
REMARK  153  A    between atoms: _361  and  _362
REMARK  154  A    between atoms: _361  and  _364
REMARK  155  A    between atoms: _364  and  _365
REMARK  156  A    between atoms: _368  and  _370
REMARK  157  A    between atoms: _370  and  _371
REMARK  158  A    between atoms: _370  and  _373
REMARK  159  A    between atoms: _373  and  _374
REMARK  160  A    between atoms: _377  and  _379
REMARK  161  A    between atoms: _379  and  _380
REMARK  162  A    between atoms: _379  and  _382
REMARK  163  A    between atoms: _382  and  _383
REMARK  164  A    between atoms: _383  and  _384
REMARK  165  A    between atoms: _389  and  _391
REMARK  166  A    between atoms: _391  and  _392
REMARK  167  A    between atoms: _391  and  _394
REMARK  168  A    between atoms: _397  and  _399
REMARK  169  A    between atoms: _399  and  _400
REMARK  170  A    between atoms: _399  and  _402
REMARK  171  A    between atoms: _402  and  _403
REMARK  172  A    between atoms: _406  and  _408
REMARK  173  A    between atoms: _408  and  _409
REMARK  174  A    between atoms: _408  and  _411
REMARK  175  A    between atoms: _411  and  _412
REMARK  176  A    between atoms: _412  and  _413
REMARK  177  A    between atoms: _415  and  _417
REMARK  178  A    between atoms: _417  and  _418
REMARK  179  A    between atoms: _417  and  _420
REMARK  180  A    between atoms: _420  and  _421
REMARK  181  A    between atoms: _421  and  _422
REMARK  182  A    between atoms: _425  and  _427
REMARK  183  A    between atoms: _427  and  _428
REMARK  184  A    between atoms: _427  and  _430
REMARK  185  A    between atoms: _430  and  _431
REMARK  186  A    between atoms: _434  and  _436
REMARK  187  A    between atoms: _436  and  _437
REMARK  188  A    between atoms: _436  and  _439
REMARK  189  A    between atoms: _439  and  _440
REMARK  190  A    between atoms: _443  and  _445
REMARK  191  A    between atoms: _445  and  _446
REMARK  192  A    between atoms: _445  and  _448
REMARK  193  A    between atoms: _448  and  _449
REMARK  194  A    between atoms: _454  and  _456
REMARK  195  A    between atoms: _456  and  _457
REMARK  196  A    between atoms: _460  and  _462
REMARK  197  A    between atoms: _462  and  _463
REMARK  198  A    between atoms: _462  and  _465
REMARK  199  A    between atoms: _465  and  _466
REMARK  200  A    between atoms: _469  and  _471
REMARK  201  A    between atoms: _471  and  _472
REMARK  202  A    between atoms: _471  and  _474
REMARK  203  A    between atoms: _477  and  _479
REMARK  204  A    between atoms: _479  and  _480
REMARK  205  A    between atoms: _479  and  _482
REMARK  206  A    between atoms: _482  and  _483
REMARK  207  A    between atoms: _483  and  _484
REMARK  208  A    between atoms: _484  and  _485
REMARK  209  A    between atoms: _494  and  _496
REMARK  210  A    between atoms: _496  and  _497
REMARK  211  A    between atoms: _496  and  _499
REMARK  212  A    between atoms: _499  and  _500
REMARK  213  A    between atoms: _503  and  _505
REMARK  214  A    between atoms: _505  and  _506
REMARK  215  A    between atoms: _505  and  _508
REMARK  216  A    between atoms: _508  and  _509
REMARK  217  A    between atoms: _512  and  _514
REMARK  218  A    between atoms: _514  and  _515
REMARK  219  A    between atoms: _514  and  _517
REMARK  220  A    between atoms: _517  and  _518
REMARK  221  A    between atoms: _518  and  _519
REMARK  222  A    between atoms: _524  and  _526
REMARK  223  A    between atoms: _526  and  _527
REMARK  224  A    between atoms: _526  and  _529
REMARK  225  A    between atoms: _532  and  _534
REMARK  226  A    between atoms: _534  and  _535
REMARK  227  A    between atoms: _534  and  _537
REMARK  228  A    between atoms: _537  and  _538
REMARK  229  A    between atoms: _541  and  _543
REMARK  230  A    between atoms: _543  and  _544
REMARK  231  A    between atoms: _543  and  _546
REMARK  232  A    between atoms: _546  and  _547
REMARK  233  A    between atoms: _547  and  _548
REMARK  234  A    between atoms: _550  and  _552
REMARK  235  A    between atoms: _552  and  _553
REMARK  236  A    between atoms: _552  and  _555
REMARK  237  A    between atoms: _555  and  _556
REMARK  238  A    between atoms: _556  and  _557
REMARK  239  A    between atoms: _560  and  _562
REMARK  240  A    between atoms: _562  and  _563
REMARK  241  A    between atoms: _562  and  _565
REMARK  242  A    between atoms: _565  and  _566
REMARK  243  A    between atoms: _569  and  _571
REMARK  244  A    between atoms: _571  and  _572
REMARK  245  A    between atoms: _571  and  _574
REMARK  246  A    between atoms: _574  and  _575
REMARK  247  A    between atoms: _575  and  _576
REMARK  248  A    between atoms: _581  and  _583
REMARK  249  A    between atoms: _583  and  _584
REMARK  250  A    between atoms: _583  and  _586
REMARK  251  A    between atoms: _586  and  _587
REMARK  252  A    between atoms: _590  and  _592
REMARK  253  A    between atoms: _592  and  _593
REMARK  254  A    between atoms: _592  and  _595
REMARK  255  A    between atoms: _595  and  _596
REMARK  256  A    between atoms: _601  and  _603
REMARK  257  A    between atoms: _603  and  _604
REMARK  258  A    between atoms: _607  and  _609
REMARK  259  A    between atoms: _609  and  _610
REMARK  260  A    between atoms: _609  and  _612
REMARK  261  A    between atoms: _612  and  _613
REMARK  262  A    between atoms: _616  and  _618
REMARK  263  A    between atoms: _618  and  _619
REMARK  264  A    between atoms: _618  and  _621
REMARK  265  A    between atoms: _624  and  _626
REMARK  266  A    between atoms: _626  and  _627
REMARK  267  A    between atoms: _626  and  _629
REMARK  268  A    between atoms: _629  and  _630
REMARK  269  A    between atoms: _630  and  _631
REMARK  270  A    between atoms: _631  and  _632
REMARK  271  A    between atoms: _641  and  _643
REMARK  272  A    between atoms: _643  and  _644
REMARK  273  A    between atoms: _643  and  _646
REMARK  274  A    between atoms: _646  and  _647
REMARK  275  A    between atoms: _650  and  _652
REMARK  276  A    between atoms: _652  and  _653
REMARK  277  A    between atoms: _652  and  _655
REMARK  278  A    between atoms: _655  and  _656
REMARK  279  A    between atoms: _659  and  _661
REMARK  280  A    between atoms: _661  and  _662
REMARK  281  A    between atoms: _661  and  _664
REMARK  282  A    between atoms: _664  and  _665
REMARK  283  A    between atoms: _665  and  _666
REMARK  284  A    between atoms: _666  and  _667
REMARK  285  A    between atoms: _676  and  _678
REMARK  286  A    between atoms: _678  and  _679
REMARK  287  A    between atoms: _678  and  _681
REMARK  288  A    between atoms: _681  and  _682
REMARK  289  A    between atoms: _682  and  _683
REMARK  290  A    between atoms: _688  and  _690
REMARK  291  A    between atoms: _690  and  _691
REMARK  292  A    between atoms: _690  and  _693
REMARK  293  A    between atoms: _696  and  _698
REMARK  294  A    between atoms: _698  and  _699
REMARK  295  A    between atoms: _698  and  _701
REMARK  296  A    between atoms: _701  and  _702
REMARK                            x       y       z     vdW  Elec       q    Type
REMARK                         _______ _______ _______ _____ _____    ______ ____
ROOT
ATOM      1  CA  ILE A   1      -5.588  -7.054  18.165  0.00  0.00    +0.133 C 
ENDROOT
BRANCH   1   2
ATOM      2  N   ILE A   1      -4.298  -7.653  18.486  0.00  0.00    -0.239 NA
ATOM      3  H   ILE A   1      -3.523  -7.590  17.795  0.00  0.00    +0.142 HD
ENDBRANCH   1   2
BRANCH   1   4
ATOM      4  C   ILE A   1      -6.664  -8.126  18.043  0.00  0.00    +0.224 C 
ATOM      5  O   ILE A   1      -7.811  -7.919  18.456  0.00  0.00    -0.287 OA
ENDBRANCH   1   4
BRANCH   1   6
ATOM      6  CB  ILE A   1      -5.521  -6.258  16.843  0.00  0.00    +0.023 C 
ATOM      7  CG2 ILE A   1      -6.931  -5.803  16.429  0.00  0.00    +0.002 C 
BRANCH   6   8
ATOM      8  CG1 ILE A   1      -4.581  -5.061  17.016  0.00  0.00    +0.002 C 
ATOM      9  CD1 ILE A   1      -4.324  -4.276  15.740  0.00  0.00    +0.000 C 
ENDBRANCH   6   8
ENDBRANCH   1   6
TORSDOF 4
REMARK  Name = ../refined-set-2016/3v2p/3v2p_pocket.pdb
REMARK  296 active torsions:
REMARK  status: ('A' for Active; 'I' for Inactive)
REMARK    1  A    between atoms: _1  and  _3
REMARK    2  A    between atoms: _3  and  _4
REMARK    3  A    between atoms: _3  and  _6
REMARK    4  A    between atoms: _6  and  _7
REMARK    5  A    between atoms: _7  and  _8
REMARK    6  A    between atoms: _10  and  _12
REMARK    7  A    between atoms: _12  and  _13
REMARK    8  A    between atoms: _12  and  _15
REMARK    9  A    between atoms: _15  and  _16
REMARK   10  A    between atoms: _16  and  _17
REMARK   11  A    between atoms: _20  and  _22
REMARK   12  A    between atoms: _22  and  _23
REMARK   13  A    between atoms: _22  and  _25
REMARK   14  A    between atoms: _25  and  _26
REMARK   15  A    between atoms: _29  and  _31
REMARK   16  A    between atoms: _31  and  _32
REMARK   17  A    between atoms: _31  and  _34
REMARK   18  A    between atoms: _34  and  _35
REMARK   19  A    between atoms: _38  and  _40
REMARK   20  A    between atoms: _40  and  _41
REMARK   21  A    between atoms: _40  and  _43
REMARK   22  A    between atoms: _43  and  _44
REMARK   23  A    between atoms: _49  and  _51
REMARK   24  A    between atoms: _51  and  _52
REMARK   25  A    between atoms: _55  and  _57
REMARK   26  A    between atoms: _57  and  _58
REMARK   27  A    between atoms: _57  and  _60
REMARK   28  A    between atoms: _60  and  _61
REMARK   29  A    between atoms: _64  and  _66
REMARK   30  A    between atoms: _66  and  _67
REMARK   31  A    between atoms: _66  and  _69
REMARK   32  A    between atoms: _72  and  _74
REMARK   33  A    between atoms: _74  and  _75
REMARK   34  A    between atoms: _74  and  _77
REMARK   35  A    between atoms: _77  and  _78
REMARK   36  A    between atoms: _78  and  _79
REMARK   37  A    between atoms: _79  and  _80
REMARK   38  A    between atoms: _89  and  _91
REMARK   39  A    between atoms: _91  and  _92
REMARK   40  A    between atoms: _91  and  _94
REMARK   41  A    between atoms: _94  and  _95
REMARK   42  A    between atoms: _98  and  _100
REMARK   43  A    between atoms: _100  and  _101
REMARK   44  A    between atoms: _100  and  _103
REMARK   45  A    between atoms: _103  and  _104
REMARK   46  A    between atoms: _107  and  _109
REMARK   47  A    between atoms: _109  and  _110
REMARK   48  A    between atoms: _109  and  _112
REMARK   49  A    between atoms: _112  and  _113
REMARK   50  A    between atoms: _113  and  _114
REMARK   51  A    between atoms: _119  and  _121
REMARK   52  A    between atoms: _121  and  _122
REMARK   53  A    between atoms: _121  and  _124
REMARK   54  A    between atoms: _127  and  _129
REMARK   55  A    between atoms: _129  and  _130
REMARK   56  A    between atoms: _129  and  _132
REMARK   57  A    between atoms: _132  and  _133
REMARK   58  A    between atoms: _136  and  _138
REMARK   59  A    between atoms: _138  and  _139
REMARK   60  A    between atoms: _138  and  _141
REMARK   61  A    between atoms: _141  and  _142
REMARK   62  A    between atoms: _142  and  _143
REMARK   63  A    between atoms: _145  and  _147
REMARK   64  A    between atoms: _147  and  _148
REMARK   65  A    between atoms: _147  and  _150
REMARK   66  A    between atoms: _150  and  _151
REMARK   67  A    between atoms: _151  and  _152
REMARK   68  A    between atoms: _155  and  _157
REMARK   69  A    between atoms: _157  and  _158
REMARK   70  A    between atoms: _157  and  _160
REMARK   71  A    between atoms: _160  and  _161
REMARK   72  A    between atoms: _164  and  _166
REMARK   73  A    between atoms: _166  and  _167
REMARK   74  A    between atoms: _166  and  _169
REMARK   75  A    between atoms: _169  and  _170
REMARK   76  A    between atoms: _173  and  _175
REMARK   77  A    between atoms: _175  and  _176
REMARK   78  A    between atoms: _175  and  _178
REMARK   79  A    between atoms: _178  and  _179
REMARK   80  A    between atoms: _184  and  _186
REMARK   81  A    between atoms: _186  and  _187
REMARK   82  A    between atoms: _190  and  _192
REMARK   83  A    between atoms: _192  and  _193
REMARK   84  A    between atoms: _192  and  _195
REMARK   85  A    between atoms: _195  and  _196
REMARK   86  A    between atoms: _199  and  _201
REMARK   87  A    between atoms: _201  and  _202
REMARK   88  A    between atoms: _201  and  _204
REMARK   89  A    between atoms: _207  and  _209
REMARK   90  A    between atoms: _209  and  _210
REMARK   91  A    between atoms: _209  and  _212
REMARK   92  A    between atoms: _212  and  _213
REMARK   93  A    between atoms: _213  and  _214
REMARK   94  A    between atoms: _214  and  _215
REMARK   95  A    between atoms: _224  and  _226
REMARK   96  A    between atoms: _226  and  _227
REMARK   97  A    between atoms: _226  and  _229
REMARK   98  A    between atoms: _229  and  _230
REMARK   99  A    between atoms: _233  and  _235
REMARK  100  A    between atoms: _235  and  _236
REMARK  101  A    between atoms: _235  and  _238
REMARK  102  A    between atoms: _238  and  _239
REMARK  103  A    between atoms: _242  and  _244
REMARK  104  A    between atoms: _244  and  _245
REMARK  105  A    between atoms: _244  and  _247
REMARK  106  A    between atoms: _247  and  _248
REMARK  107  A    between atoms: _248  and  _249
REMARK  108  A    between atoms: _254  and  _256
REMARK  109  A    between atoms: _256  and  _257
REMARK  110  A    between atoms: _256  and  _259
REMARK  111  A    between atoms: _262  and  _264
REMARK  112  A    between atoms: _264  and  _265
REMARK  113  A    between atoms: _264  and  _267
REMARK  114  A    between atoms: _267  and  _268
REMARK  115  A    between atoms: _271  and  _273
REMARK  116  A    between atoms: _273  and  _274
REMARK  117  A    between atoms: _273  and  _276
REMARK  118  A    between atoms: _276  and  _277
REMARK  119  A    between atoms: _277  and  _278
REMARK  120  A    between atoms: _280  and  _282
REMARK  121  A    between atoms: _282  and  _283
REMARK  122  A    between atoms: _282  and  _285
REMARK  123  A    between atoms: _285  and  _286
REMARK  124  A    between atoms: _286  and  _287
REMARK  125  A    between atoms: _290  and  _292
REMARK  126  A    between atoms: _292  and  _293
REMARK  127  A    between atoms: _292  and  _295
REMARK  128  A    between atoms: _295  and  _296
REMARK  129  A    between atoms: _299  and  _301
REMARK  130  A    between atoms: _301  and  _302
REMARK  131  A    between atoms: _301  and  _304
REMARK  132  A    between atoms: _304  and  _305
REMARK  133  A    between atoms: _308  and  _310
REMARK  134  A    between atoms: _310  and  _311
REMARK  135  A    between atoms: _310  and  _313
REMARK  136  A    between atoms: _313  and  _314
REMARK  137  A    between atoms: _319  and  _321
REMARK  138  A    between atoms: _321  and  _322
REMARK  139  A    between atoms: _325  and  _327
REMARK  140  A    between atoms: _327  and  _328
REMARK  141  A    between atoms: _327  and  _330
REMARK  142  A    between atoms: _330  and  _331
REMARK  143  A    between atoms: _334  and  _336
REMARK  144  A    between atoms: _336  and  _337
REMARK  145  A    between atoms: _336  and  _339
REMARK  146  A    between atoms: _342  and  _344
REMARK  147  A    between atoms: _344  and  _345
REMARK  148  A    between atoms: _344  and  _347
REMARK  149  A    between atoms: _347  and  _348
REMARK  150  A    between atoms: _348  and  _349
REMARK  151  A    between atoms: _349  and  _350
REMARK  152  A    between atoms: _359  and  _361
REMARK  153  A    between atoms: _361  and  _362
REMARK  154  A    between atoms: _361  and  _364
REMARK  155  A    between atoms: _364  and  _365
REMARK  156  A    between atoms: _368  and  _370
REMARK  157  A    between atoms: _370  and  _371
REMARK  158  A    between atoms: _370  and  _373
REMARK  159  A    between atoms: _373  and  _374
REMARK  160  A    between atoms: _377  and  _379
REMARK  161  A    between atoms: _379  and  _380
REMARK  162  A    between atoms: _379  and  _382
REMARK  163  A    between atoms: _382  and  _383
REMARK  164  A    between atoms: _383  and  _384
REMARK  165  A    between atoms: _389  and  _391
REMARK  166  A    between atoms: _391  and  _392
REMARK  167  A    between atoms: _391  and  _394
REMARK  168  A    between atoms: _397  and  _399
REMARK  169  A    between atoms: _399  and  _400
REMARK  170  A    between atoms: _399  and  _402
REMARK  171  A    between atoms: _402  and  _403
REMARK  172  A    between atoms: _406  and  _408
REMARK  173  A    between atoms: _408  and  _409
REMARK  174  A    between atoms: _408  and  _411
REMARK  175  A    between atoms: _411  and  _412
REMARK  176  A    between atoms: _412  and  _413
REMARK  177  A    between atoms: _415  and  _417
REMARK  178  A    between atoms: _417  and  _418
REMARK  179  A    between atoms: _417  and  _420
REMARK  180  A    between atoms: _420  and  _421
REMARK  181  A    between atoms: _421  and  _422
REMARK  182  A    between atoms: _425  and  _427
REMARK  183  A    between atoms: _427  and  _428
REMARK  184  A    between atoms: _427  and  _430
REMARK  185  A    between atoms: _430  and  _431
REMARK  186  A    between atoms: _434  and  _436
REMARK  187  A    between atoms: _436  and  _437
REMARK  188  A    between atoms: _436  and  _439
REMARK  189  A    between atoms: _439  and  _440
REMARK  190  A    between atoms: _443  and  _445
REMARK  191  A    between atoms: _445  and  _446
REMARK  192  A    between atoms: _445  and  _448
REMARK  193  A    between atoms: _448  and  _449
REMARK  194  A    between atoms: _454  and  _456
REMARK  195  A    between atoms: _456  and  _457
REMARK  196  A    between atoms: _460  and  _462
REMARK  197  A    between atoms: _462  and  _463
REMARK  198  A    between atoms: _462  and  _465
REMARK  199  A    between atoms: _465  and  _466
REMARK  200  A    between atoms: _469  and  _471
REMARK  201  A    between atoms: _471  and  _472
REMARK  202  A    between atoms: _471  and  _474
REMARK  203  A    between atoms: _477  and  _479
REMARK  204  A    between atoms: _479  and  _480
REMARK  205  A    between atoms: _479  and  _482
REMARK  206  A    between atoms: _482  and  _483
REMARK  207  A    between atoms: _483  and  _484
REMARK  208  A    between atoms: _484  and  _485
REMARK  209  A    between atoms: _494  and  _496
REMARK  210  A    between atoms: _496  and  _497
REMARK  211  A    between atoms: _496  and  _499
REMARK  212  A    between atoms: _499  and  _500
REMARK  213  A    between atoms: _503  and  _505
REMARK  214  A    between atoms: _505  and  _506
REMARK  215  A    between atoms: _505  and  _508
REMARK  216  A    between atoms: _508  and  _509
REMARK  217  A    between atoms: _512  and  _514
REMARK  218  A    between atoms: _514  and  _515
REMARK  219  A    between atoms: _514  and  _517
REMARK  220  A    between atoms: _517  and  _518
REMARK  221  A    between atoms: _518  and  _519
REMARK  222  A    between atoms: _524  and  _526
REMARK  223  A    between atoms: _526  and  _527
REMARK  224  A    between atoms: _526  and  _529
REMARK  225  A    between atoms: _532  and  _534
REMARK  226  A    between atoms: _534  and  _535
REMARK  227  A    between atoms: _534  and  _537
REMARK  228  A    between atoms: _537  and  _538
REMARK  229  A    between atoms: _541  and  _543
REMARK  230  A    between atoms: _543  and  _544
REMARK  231  A    between atoms: _543  and  _546
REMARK  232  A    between atoms: _546  and  _547
REMARK  233  A    between atoms: _547  and  _548
REMARK  234  A    between atoms: _550  and  _552
REMARK  235  A    between atoms: _552  and  _553
REMARK  236  A    between atoms: _552  and  _555
REMARK  237  A    between atoms: _555  and  _556
REMARK  238  A    between atoms: _556  and  _557
REMARK  239  A    between atoms: _560  and  _562
REMARK  240  A    between atoms: _562  and  _563
REMARK  241  A    between atoms: _562  and  _565
REMARK  242  A    between atoms: _565  and  _566
REMARK  243  A    between atoms: _569  and  _571
REMARK  244  A    between atoms: _571  and  _572
REMARK  245  A    between atoms: _571  and  _574
REMARK  246  A    between atoms: _574  and  _575
REMARK  247  A    between atoms: _575  and  _576
REMARK  248  A    between atoms: _581  and  _583
REMARK  249  A    between atoms: _583  and  _584
REMARK  250  A    between atoms: _583  and  _586
REMARK  251  A    between atoms: _586  and  _587
REMARK  252  A    between atoms: _590  and  _592
REMARK  253  A    between atoms: _592  and  _593
REMARK  254  A    between atoms: _592  and  _595
REMARK  255  A    between atoms: _595  and  _596
REMARK  256  A    between atoms: _601  and  _603
REMARK  257  A    between atoms: _603  and  _604
REMARK  258  A    between atoms: _607  and  _609
REMARK  259  A    between atoms: _609  and  _610
REMARK  260  A    between atoms: _609  and  _612
REMARK  261  A    between atoms: _612  and  _613
REMARK  262  A    between atoms: _616  and  _618
REMARK  263  A    between atoms: _618  and  _619
REMARK  264  A    between atoms: _618  and  _621
REMARK  265  A    between atoms: _624  and  _626
REMARK  266  A    between atoms: _626  and  _627
REMARK  267  A    between atoms: _626  and  _629
REMARK  268  A    between atoms: _629  and  _630
REMARK  269  A    between atoms: _630  and  _631
REMARK  270  A    between atoms: _631  and  _632
REMARK  271  A    between atoms: _641  and  _643
REMARK  272  A    between atoms: _643  and  _644
REMARK  273  A    between atoms: _643  and  _646
REMARK  274  A    between atoms: _646  and  _647
REMARK  275  A    between atoms: _650  and  _652
REMARK  276  A    between atoms: _652  and  _653
REMARK  277  A    between atoms: _652  and  _655
REMARK  278  A    between atoms: _655  and  _656
REMARK  279  A    between atoms: _659  and  _661
REMARK  280  A    between atoms: _661  and  _662
REMARK  281  A    between atoms: _661  and  _664
REMARK  282  A    between atoms: _664  and  _665
REMARK  283  A    between atoms: _665  and  _666
REMARK  284  A    between atoms: _666  and  _667
REMARK  285  A    between atoms: _676  and  _678
REMARK  286  A    between atoms: _678  and  _679
REMARK  287  A    between atoms: _678  and  _681
REMARK  288  A    between atoms: _681  and  _682
REMARK  289  A    between atoms: _682  and  _683
REMARK  290  A    between atoms: _688  and  _690
REMARK  291  A    between atoms: _690  and  _691
REMARK  292  A    between atoms: _690  and  _693
REMARK  293  A    between atoms: _696  and  _698
REMARK  294  A    between atoms: _698  and  _699
REMARK  295  A    between atoms: _698  and  _701
REMARK  296  A    between atoms: _701  and  _702
REMARK                            x       y       z     vdW  Elec       q    Type
REMARK                         _______ _______ _______ _____ _____    ______ ____
ROOT
ATOM      1  CA  MET A   1      20.163  -5.607  -6.861  0.00  0.00    +0.134 C 
ENDROOT
BRANCH   1   2
ATOM      2  N   MET A   1      21.025  -6.740  -7.159  0.00  0.00    -0.239 NA
ATOM      3  H   MET A   1      21.728  -6.668  -7.922  0.00  0.00    +0.142 HD
ENDBRANCH   1   2
BRANCH   1   4
ATOM      4  C   MET A   1      18.739  -5.943  -7.284  0.00  0.00    +0.224 C 
ATOM      5  O   MET A   1      17.781  -5.572  -6.606  0.00  0.00    -0.287 OA
ENDBRANCH   1   4
BRANCH   1   6
ATOM      6  CB  MET A   1      20.672  -4.343  -7.567  0.00  0.00    +0.037 C 
BRANCH   6   7
ATOM      7  CG  MET A   1      21.893  -3.742  -6.880  0.00  0.00    +0.059 C 
BRANCH   7   8
ATOM      8  SD  MET A   1      22.682  -2.365  -7.753  0.00  0.00    -0.139 S 
ATOM      9  CE  MET A   1      21.537  -1.027  -7.395  0.00  0.00    +0.069 C 
ENDBRANCH   7   8
ENDBRANCH   6   7
ENDBRANCH   1   6
TORSDOF 5
REMARK  Name = ../refined-set-2016/3v2p/3v2p_pocket.pdb
REMARK  296 active torsions:
REMARK  status: ('A' for Active; 'I' for Inactive)
REMARK    1  A    between atoms: _1  and  _3
REMARK    2  A    between atoms: _3  and  _4
REMARK    3  A    between atoms: _3  and  _6
REMARK    4  A    between atoms: _6  and  _7
REMARK    5  A    between atoms: _7  and  _8
REMARK    6  A    between atoms: _10  and  _12
REMARK    7  A    between atoms: _12  and  _13
REMARK    8  A    between atoms: _12  and  _15
REMARK    9  A    between atoms: _15  and  _16
REMARK   10  A    between atoms: _16  and  _17
REMARK   11  A    between atoms: _20  and  _22
REMARK   12  A    between atoms: _22  and  _23
REMARK   13  A    between atoms: _22  and  _25
REMARK   14  A    between atoms: _25  and  _26
REMARK   15  A    between atoms: _29  and  _31
REMARK   16  A    between atoms: _31  and  _32
REMARK   17  A    between atoms: _31  and  _34
REMARK   18  A    between atoms: _34  and  _35
REMARK   19  A    between atoms: _38  and  _40
REMARK   20  A    between atoms: _40  and  _41
REMARK   21  A    between atoms: _40  and  _43
REMARK   22  A    between atoms: _43  and  _44
REMARK   23  A    between atoms: _49  and  _51
REMARK   24  A    between atoms: _51  and  _52
REMARK   25  A    between atoms: _55  and  _57
REMARK   26  A    between atoms: _57  and  _58
REMARK   27  A    between atoms: _57  and  _60
REMARK   28  A    between atoms: _60  and  _61
REMARK   29  A    between atoms: _64  and  _66
REMARK   30  A    between atoms: _66  and  _67
REMARK   31  A    between atoms: _66  and  _69
REMARK   32  A    between atoms: _72  and  _74
REMARK   33  A    between atoms: _74  and  _75
REMARK   34  A    between atoms: _74  and  _77
REMARK   35  A    between atoms: _77  and  _78
REMARK   36  A    between atoms: _78  and  _79
REMARK   37  A    between atoms: _79  and  _80
REMARK   38  A    between atoms: _89  and  _91
REMARK   39  A    between atoms: _91  and  _92
REMARK   40  A    between atoms: _91  and  _94
REMARK   41  A    between atoms: _94  and  _95
REMARK   42  A    between atoms: _98  and  _100
REMARK   43  A    between atoms: _100  and  _101
REMARK   44  A    between atoms: _100  and  _103
REMARK   45  A    between atoms: _103  and  _104
REMARK   46  A    between atoms: _107  and  _109
REMARK   47  A    between atoms: _109  and  _110
REMARK   48  A    between atoms: _109  and  _112
REMARK   49  A    between atoms: _112  and  _113
REMARK   50  A    between atoms: _113  and  _114
REMARK   51  A    between atoms: _119  and  _121
REMARK   52  A    between atoms: _121  and  _122
REMARK   53  A    between atoms: _121  and  _124
REMARK   54  A    between atoms: _127  and  _129
REMARK   55  A    between atoms: _129  and  _130
REMARK   56  A    between atoms: _129  and  _132
REMARK   57  A    between atoms: _132  and  _133
REMARK   58  A    between atoms: _136  and  _138
REMARK   59  A    between atoms: _138  and  _139
REMARK   60  A    between atoms: _138  and  _141
REMARK   61  A    between atoms: _141  and  _142
REMARK   62  A    between atoms: _142  and  _143
REMARK   63  A    between atoms: _145  and  _147
REMARK   64  A    between atoms: _147  and  _148
REMARK   65  A    between atoms: _147  and  _150
REMARK   66  A    between atoms: _150  and  _151
REMARK   67  A    between atoms: _151  and  _152
REMARK   68  A    between atoms: _155  and  _157
REMARK   69  A    between atoms: _157  and  _158
REMARK   70  A    between atoms: _157  and  _160
REMARK   71  A    between atoms: _160  and  _161
REMARK   72  A    between atoms: _164  and  _166
REMARK   73  A    between atoms: _166  and  _167
REMARK   74  A    between atoms: _166  and  _169
REMARK   75  A    between atoms: _169  and  _170
REMARK   76  A    between atoms: _173  and  _175
REMARK   77  A    between atoms: _175  and  _176
REMARK   78  A    between atoms: _175  and  _178
REMARK   79  A    between atoms: _178  and  _179
REMARK   80  A    between atoms: _184  and  _186
REMARK   81  A    between atoms: _186  and  _187
REMARK   82  A    between atoms: _190  and  _192
REMARK   83  A    between atoms: _192  and  _193
REMARK   84  A    between atoms: _192  and  _195
REMARK   85  A    between atoms: _195  and  _196
REMARK   86  A    between atoms: _199  and  _201
REMARK   87  A    between atoms: _201  and  _202
REMARK   88  A    between atoms: _201  and  _204
REMARK   89  A    between atoms: _207  and  _209
REMARK   90  A    between atoms: _209  and  _210
REMARK   91  A    between atoms: _209  and  _212
REMARK   92  A    between atoms: _212  and  _213
REMARK   93  A    between atoms: _213  and  _214
REMARK   94  A    between atoms: _214  and  _215
REMARK   95  A    between atoms: _224  and  _226
REMARK   96  A    between atoms: _226  and  _227
REMARK   97  A    between atoms: _226  and  _229
REMARK   98  A    between atoms: _229  and  _230
REMARK   99  A    between atoms: _233  and  _235
REMARK  100  A    between atoms: _235  and  _236
REMARK  101  A    between atoms: _235  and  _238
REMARK  102  A    between atoms: _238  and  _239
REMARK  103  A    between atoms: _242  and  _244
REMARK  104  A    between atoms: _244  and  _245
REMARK  105  A    between atoms: _244  and  _247
REMARK  106  A    between atoms: _247  and  _248
REMARK  107  A    between atoms: _248  and  _249
REMARK  108  A    between atoms: _254  and  _256
REMARK  109  A    between atoms: _256  and  _257
REMARK  110  A    between atoms: _256  and  _259
REMARK  111  A    between atoms: _262  and  _264
REMARK  112  A    between atoms: _264  and  _265
REMARK  113  A    between atoms: _264  and  _267
REMARK  114  A    between atoms: _267  and  _268
REMARK  115  A    between atoms: _271  and  _273
REMARK  116  A    between atoms: _273  and  _274
REMARK  117  A    between atoms: _273  and  _276
REMARK  118  A    between atoms: _276  and  _277
REMARK  119  A    between atoms: _277  and  _278
REMARK  120  A    between atoms: _280  and  _282
REMARK  121  A    between atoms: _282  and  _283
REMARK  122  A    between atoms: _282  and  _285
REMARK  123  A    between atoms: _285  and  _286
REMARK  124  A    between atoms: _286  and  _287
REMARK  125  A    between atoms: _290  and  _292
REMARK  126  A    between atoms: _292  and  _293
REMARK  127  A    between atoms: _292  and  _295
REMARK  128  A    between atoms: _295  and  _296
REMARK  129  A    between atoms: _299  and  _301
REMARK  130  A    between atoms: _301  and  _302
REMARK  131  A    between atoms: _301  and  _304
REMARK  132  A    between atoms: _304  and  _305
REMARK  133  A    between atoms: _308  and  _310
REMARK  134  A    between atoms: _310  and  _311
REMARK  135  A    between atoms: _310  and  _313
REMARK  136  A    between atoms: _313  and  _314
REMARK  137  A    between atoms: _319  and  _321
REMARK  138  A    between atoms: _321  and  _322
REMARK  139  A    between atoms: _325  and  _327
REMARK  140  A    between atoms: _327  and  _328
REMARK  141  A    between atoms: _327  and  _330
REMARK  142  A    between atoms: _330  and  _331
REMARK  143  A    between atoms: _334  and  _336
REMARK  144  A    between atoms: _336  and  _337
REMARK  145  A    between atoms: _336  and  _339
REMARK  146  A    between atoms: _342  and  _344
REMARK  147  A    between atoms: _344  and  _345
REMARK  148  A    between atoms: _344  and  _347
REMARK  149  A    between atoms: _347  and  _348
REMARK  150  A    between atoms: _348  and  _349
REMARK  151  A    between atoms: _349  and  _350
REMARK  152  A    between atoms: _359  and  _361
REMARK  153  A    between atoms: _361  and  _362
REMARK  154  A    between atoms: _361  and  _364
REMARK  155  A    between atoms: _364  and  _365
REMARK  156  A    between atoms: _368  and  _370
REMARK  157  A    between atoms: _370  and  _371
REMARK  158  A    between atoms: _370  and  _373
REMARK  159  A    between atoms: _373  and  _374
REMARK  160  A    between atoms: _377  and  _379
REMARK  161  A    between atoms: _379  and  _380
REMARK  162  A    between atoms: _379  and  _382
REMARK  163  A    between atoms: _382  and  _383
REMARK  164  A    between atoms: _383  and  _384
REMARK  165  A    between atoms: _389  and  _391
REMARK  166  A    between atoms: _391  and  _392
REMARK  167  A    between atoms: _391  and  _394
REMARK  168  A    between atoms: _397  and  _399
REMARK  169  A    between atoms: _399  and  _400
REMARK  170  A    between atoms: _399  and  _402
REMARK  171  A    between atoms: _402  and  _403
REMARK  172  A    between atoms: _406  and  _408
REMARK  173  A    between atoms: _408  and  _409
REMARK  174  A    between atoms: _408  and  _411
REMARK  175  A    between atoms: _411  and  _412
REMARK  176  A    between atoms: _412  and  _413
REMARK  177  A    between atoms: _415  and  _417
REMARK  178  A    between atoms: _417  and  _418
REMARK  179  A    between atoms: _417  and  _420
REMARK  180  A    between atoms: _420  and  _421
REMARK  181  A    between atoms: _421  and  _422
REMARK  182  A    between atoms: _425  and  _427
REMARK  183  A    between atoms: _427  and  _428
REMARK  184  A    between atoms: _427  and  _430
REMARK  185  A    between atoms: _430  and  _431
REMARK  186  A    between atoms: _434  and  _436
REMARK  187  A    between atoms: _436  and  _437
REMARK  188  A    between atoms: _436  and  _439
REMARK  189  A    between atoms: _439  and  _440
REMARK  190  A    between atoms: _443  and  _445
REMARK  191  A    between atoms: _445  and  _446
REMARK  192  A    between atoms: _445  and  _448
REMARK  193  A    between atoms: _448  and  _449
REMARK  194  A    between atoms: _454  and  _456
REMARK  195  A    between atoms: _456  and  _457
REMARK  196  A    between atoms: _460  and  _462
REMARK  197  A    between atoms: _462  and  _463
REMARK  198  A    between atoms: _462  and  _465
REMARK  199  A    between atoms: _465  and  _466
REMARK  200  A    between atoms: _469  and  _471
REMARK  201  A    between atoms: _471  and  _472
REMARK  202  A    between atoms: _471  and  _474
REMARK  203  A    between atoms: _477  and  _479
REMARK  204  A    between atoms: _479  and  _480
REMARK  205  A    between atoms: _479  and  _482
REMARK  206  A    between atoms: _482  and  _483
REMARK  207  A    between atoms: _483  and  _484
REMARK  208  A    between atoms: _484  and  _485
REMARK  209  A    between atoms: _494  and  _496
REMARK  210  A    between atoms: _496  and  _497
REMARK  211  A    between atoms: _496  and  _499
REMARK  212  A    between atoms: _499  and  _500
REMARK  213  A    between atoms: _503  and  _505
REMARK  214  A    between atoms: _505  and  _506
REMARK  215  A    between atoms: _505  and  _508
REMARK  216  A    between atoms: _508  and  _509
REMARK  217  A    between atoms: _512  and  _514
REMARK  218  A    between atoms: _514  and  _515
REMARK  219  A    between atoms: _514  and  _517
REMARK  220  A    between atoms: _517  and  _518
REMARK  221  A    between atoms: _518  and  _519
REMARK  222  A    between atoms: _524  and  _526
REMARK  223  A    between atoms: _526  and  _527
REMARK  224  A    between atoms: _526  and  _529
REMARK  225  A    between atoms: _532  and  _534
REMARK  226  A    between atoms: _534  and  _535
REMARK  227  A    between atoms: _534  and  _537
REMARK  228  A    between atoms: _537  and  _538
REMARK  229  A    between atoms: _541  and  _543
REMARK  230  A    between atoms: _543  and  _544
REMARK  231  A    between atoms: _543  and  _546
REMARK  232  A    between atoms: _546  and  _547
REMARK  233  A    between atoms: _547  and  _548
REMARK  234  A    between atoms: _550  and  _552
REMARK  235  A    between atoms: _552  and  _553
REMARK  236  A    between atoms: _552  and  _555
REMARK  237  A    between atoms: _555  and  _556
REMARK  238  A    between atoms: _556  and  _557
REMARK  239  A    between atoms: _560  and  _562
REMARK  240  A    between atoms: _562  and  _563
REMARK  241  A    between atoms: _562  and  _565
REMARK  242  A    between atoms: _565  and  _566
REMARK  243  A    between atoms: _569  and  _571
REMARK  244  A    between atoms: _571  and  _572
REMARK  245  A    between atoms: _571  and  _574
REMARK  246  A    between atoms: _574  and  _575
REMARK  247  A    between atoms: _575  and  _576
REMARK  248  A    between atoms: _581  and  _583
REMARK  249  A    between atoms: _583  and  _584
REMARK  250  A    between atoms: _583  and  _586
REMARK  251  A    between atoms: _586  and  _587
REMARK  252  A    between atoms: _590  and  _592
REMARK  253  A    between atoms: _592  and  _593
REMARK  254  A    between atoms: _592  and  _595
REMARK  255  A    between atoms: _595  and  _596
REMARK  256  A    between atoms: _601  and  _603
REMARK  257  A    between atoms: _603  and  _604
REMARK  258  A    between atoms: _607  and  _609
REMARK  259  A    between atoms: _609  and  _610
REMARK  260  A    between atoms: _609  and  _612
REMARK  261  A    between atoms: _612  and  _613
REMARK  262  A    between atoms: _616  and  _618
REMARK  263  A    between atoms: _618  and  _619
REMARK  264  A    between atoms: _618  and  _621
REMARK  265  A    between atoms: _624  and  _626
REMARK  266  A    between atoms: _626  and  _627
REMARK  267  A    between atoms: _626  and  _629
REMARK  268  A    between atoms: _629  and  _630
REMARK  269  A    between atoms: _630  and  _631
REMARK  270  A    between atoms: _631  and  _632
REMARK  271  A    between atoms: _641  and  _643
REMARK  272  A    between atoms: _643  and  _644
REMARK  273  A    between atoms: _643  and  _646
REMARK  274  A    between atoms: _646  and  _647
REMARK  275  A    between atoms: _650  and  _652
REMARK  276  A    between atoms: _652  and  _653
REMARK  277  A    between atoms: _652  and  _655
REMARK  278  A    between atoms: _655  and  _656
REMARK  279  A    between atoms: _659  and  _661
REMARK  280  A    between atoms: _661  and  _662
REMARK  281  A    between atoms: _661  and  _664
REMARK  282  A    between atoms: _664  and  _665
REMARK  283  A    between atoms: _665  and  _666
REMARK  284  A    between atoms: _666  and  _667
REMARK  285  A    between atoms: _676  and  _678
REMARK  286  A    between atoms: _678  and  _679
REMARK  287  A    between atoms: _678  and  _681
REMARK  288  A    between atoms: _681  and  _682
REMARK  289  A    between atoms: _682  and  _683
REMARK  290  A    between atoms: _688  and  _690
REMARK  291  A    between atoms: _690  and  _691
REMARK  292  A    between atoms: _690  and  _693
REMARK  293  A    between atoms: _696  and  _698
REMARK  294  A    between atoms: _698  and  _699
REMARK  295  A    between atoms: _698  and  _701
REMARK  296  A    between atoms: _701  and  _702
REMARK                            x       y       z     vdW  Elec       q    Type
REMARK                         _______ _______ _______ _____ _____    ______ ____
ROOT
ATOM      1  C   GLU A   1      15.408  -6.650  -3.718  0.00  0.00    +0.238 C 
ATOM      2  O   GLU A   1      14.530  -6.625  -2.852  0.00  0.00    -0.274 OA
ATOM      3  N   LEU A   2      15.261  -6.067  -4.904  0.00  0.00    -0.298 N 
ATOM      4  H   LEU A   2      16.039  -6.105  -5.594  0.00  0.00    +0.150 HD
ENDROOT
BRANCH   1   5
ATOM      5  CA  GLU A   1      16.749  -7.349  -3.463  0.00  0.00    +0.145 C 
BRANCH   5   6
ATOM      6  N   GLU A   1      17.149  -8.112  -4.646  0.00  0.00    -0.238 NA
ATOM      7  H   GLU A   1      18.005  -7.837  -5.168  0.00  0.00    +0.142 HD
ENDBRANCH   5   6
BRANCH   5   8
ATOM      8  CB  GLU A   1      17.794  -6.283  -3.111  0.00  0.00    +0.038 C 
BRANCH   8   9
ATOM      9  CG  GLU A   1      19.103  -6.790  -2.532  0.00  0.00    +0.116 C 
BRANCH   9  10
ATOM     10  CD  GLU A   1      18.923  -7.537  -1.224  0.00  0.00    +0.365 C 
ATOM     11  OE2 GLU A   1      18.119  -7.090  -0.379  0.00  0.00    -0.246 OA
ATOM     12  OE1 GLU A   1      19.599  -8.566  -1.040  0.00  0.00    -0.246 OA
ENDBRANCH   9  10
ENDBRANCH   8   9
ENDBRANCH   5   8
ENDBRANCH   1   5
BRANCH   3  13
ATOM     13  CA  LEU A   2      14.024  -5.375  -5.252  0.00  0.00    +0.137 C 
BRANCH  13  14
ATOM     14  C   LEU A   2      12.850  -6.349  -5.303  0.00  0.00    +0.227 C 
ATOM     15  O   LEU A   2      11.739  -6.018  -4.879  0.00  0.00    -0.286 OA
ENDBRANCH  13  14
BRANCH  13  16
ATOM     16  CB  LEU A   2      14.175  -4.652  -6.596  0.00  0.00    +0.028 C 
BRANCH  16  17
ATOM     17  CG  LEU A   2      15.137  -3.452  -6.597  0.00  0.00    +0.002 C 
ATOM     18  CD2 LEU A   2      14.608  -2.383  -5.659  0.00  0.00    +0.000 C 
ATOM     19  CD1 LEU A   2      15.284  -2.899  -8.017  0.00  0.00    +0.000 C 
ENDBRANCH  16  17
ENDBRANCH  13  16
ENDBRANCH   3  13
TORSDOF 9
REMARK  Name = ../refined-set-2016/3v2p/3v2p_pocket.pdb
REMARK  296 active torsions:
REMARK  status: ('A' for Active; 'I' for Inactive)
REMARK    1  A    between atoms: _1  and  _3
REMARK    2  A    between atoms: _3  and  _4
REMARK    3  A    between atoms: _3  and  _6
REMARK    4  A    between atoms: _6  and  _7
REMARK    5  A    between atoms: _7  and  _8
REMARK    6  A    between atoms: _10  and  _12
REMARK    7  A    between atoms: _12  and  _13
REMARK    8  A    between atoms: _12  and  _15
REMARK    9  A    between atoms: _15  and  _16
REMARK   10  A    between atoms: _16  and  _17
REMARK   11  A    between atoms: _20  and  _22
REMARK   12  A    between atoms: _22  and  _23
REMARK   13  A    between atoms: _22  and  _25
REMARK   14  A    between atoms: _25  and  _26
REMARK   15  A    between atoms: _29  and  _31
REMARK   16  A    between atoms: _31  and  _32
REMARK   17  A    between atoms: _31  and  _34
REMARK   18  A    between atoms: _34  and  _35
REMARK   19  A    between atoms: _38  and  _40
REMARK   20  A    between atoms: _40  and  _41
REMARK   21  A    between atoms: _40  and  _43
REMARK   22  A    between atoms: _43  and  _44
REMARK   23  A    between atoms: _49  and  _51
REMARK   24  A    between atoms: _51  and  _52
REMARK   25  A    between atoms: _55  and  _57
REMARK   26  A    between atoms: _57  and  _58
REMARK   27  A    between atoms: _57  and  _60
REMARK   28  A    between atoms: _60  and  _61
REMARK   29  A    between atoms: _64  and  _66
REMARK   30  A    between atoms: _66  and  _67
REMARK   31  A    between atoms: _66  and  _69
REMARK   32  A    between atoms: _72  and  _74
REMARK   33  A    between atoms: _74  and  _75
REMARK   34  A    between atoms: _74  and  _77
REMARK   35  A    between atoms: _77  and  _78
REMARK   36  A    between atoms: _78  and  _79
REMARK   37  A    between atoms: _79  and  _80
REMARK   38  A    between atoms: _89  and  _91
REMARK   39  A    between atoms: _91  and  _92
REMARK   40  A    between atoms: _91  and  _94
REMARK   41  A    between atoms: _94  and  _95
REMARK   42  A    between atoms: _98  and  _100
REMARK   43  A    between atoms: _100  and  _101
REMARK   44  A    between atoms: _100  and  _103
REMARK   45  A    between atoms: _103  and  _104
REMARK   46  A    between atoms: _107  and  _109
REMARK   47  A    between atoms: _109  and  _110
REMARK   48  A    between atoms: _109  and  _112
REMARK   49  A    between atoms: _112  and  _113
REMARK   50  A    between atoms: _113  and  _114
REMARK   51  A    between atoms: _119  and  _121
REMARK   52  A    between atoms: _121  and  _122
REMARK   53  A    between atoms: _121  and  _124
REMARK   54  A    between atoms: _127  and  _129
REMARK   55  A    between atoms: _129  and  _130
REMARK   56  A    between atoms: _129  and  _132
REMARK   57  A    between atoms: _132  and  _133
REMARK   58  A    between atoms: _136  and  _138
REMARK   59  A    between atoms: _138  and  _139
REMARK   60  A    between atoms: _138  and  _141
REMARK   61  A    between atoms: _141  and  _142
REMARK   62  A    between atoms: _142  and  _143
REMARK   63  A    between atoms: _145  and  _147
REMARK   64  A    between atoms: _147  and  _148
REMARK   65  A    between atoms: _147  and  _150
REMARK   66  A    between atoms: _150  and  _151
REMARK   67  A    between atoms: _151  and  _152
REMARK   68  A    between atoms: _155  and  _157
REMARK   69  A    between atoms: _157  and  _158
REMARK   70  A    between atoms: _157  and  _160
REMARK   71  A    between atoms: _160  and  _161
REMARK   72  A    between atoms: _164  and  _166
REMARK   73  A    between atoms: _166  and  _167
REMARK   74  A    between atoms: _166  and  _169
REMARK   75  A    between atoms: _169  and  _170
REMARK   76  A    between atoms: _173  and  _175
REMARK   77  A    between atoms: _175  and  _176
REMARK   78  A    between atoms: _175  and  _178
REMARK   79  A    between atoms: _178  and  _179
REMARK   80  A    between atoms: _184  and  _186
REMARK   81  A    between atoms: _186  and  _187
REMARK   82  A    between atoms: _190  and  _192
REMARK   83  A    between atoms: _192  and  _193
REMARK   84  A    between atoms: _192  and  _195
REMARK   85  A    between atoms: _195  and  _196
REMARK   86  A    between atoms: _199  and  _201
REMARK   87  A    between atoms: _201  and  _202
REMARK   88  A    between atoms: _201  and  _204
REMARK   89  A    between atoms: _207  and  _209
REMARK   90  A    between atoms: _209  and  _210
REMARK   91  A    between atoms: _209  and  _212
REMARK   92  A    between atoms: _212  and  _213
REMARK   93  A    between atoms: _213  and  _214
REMARK   94  A    between atoms: _214  and  _215
REMARK   95  A    between atoms: _224  and  _226
REMARK   96  A    between atoms: _226  and  _227
REMARK   97  A    between atoms: _226  and  _229
REMARK   98  A    between atoms: _229  and  _230
REMARK   99  A    between atoms: _233  and  _235
REMARK  100  A    between atoms: _235  and  _236
REMARK  101  A    between atoms: _235  and  _238
REMARK  102  A    between atoms: _238  and  _239
REMARK  103  A    between atoms: _242  and  _244
REMARK  104  A    between atoms: _244  and  _245
REMARK  105  A    between atoms: _244  and  _247
REMARK  106  A    between atoms: _247  and  _248
REMARK  107  A    between atoms: _248  and  _249
REMARK  108  A    between atoms: _254  and  _256
REMARK  109  A    between atoms: _256  and  _257
REMARK  110  A    between atoms: _256  and  _259
REMARK  111  A    between atoms: _262  and  _264
REMARK  112  A    between atoms: _264  and  _265
REMARK  113  A    between atoms: _264  and  _267
REMARK  114  A    between atoms: _267  and  _268
REMARK  115  A    between atoms: _271  and  _273
REMARK  116  A    between atoms: _273  and  _274
REMARK  117  A    between atoms: _273  and  _276
REMARK  118  A    between atoms: _276  and  _277
REMARK  119  A    between atoms: _277  and  _278
REMARK  120  A    between atoms: _280  and  _282
REMARK  121  A    between atoms: _282  and  _283
REMARK  122  A    between atoms: _282  and  _285
REMARK  123  A    between atoms: _285  and  _286
REMARK  124  A    between atoms: _286  and  _287
REMARK  125  A    between atoms: _290  and  _292
REMARK  126  A    between atoms: _292  and  _293
REMARK  127  A    between atoms: _292  and  _295
REMARK  128  A    between atoms: _295  and  _296
REMARK  129  A    between atoms: _299  and  _301
REMARK  130  A    between atoms: _301  and  _302
REMARK  131  A    between atoms: _301  and  _304
REMARK  132  A    between atoms: _304  and  _305
REMARK  133  A    between atoms: _308  and  _310
REMARK  134  A    between atoms: _310  and  _311
REMARK  135  A    between atoms: _310  and  _313
REMARK  136  A    between atoms: _313  and  _314
REMARK  137  A    between atoms: _319  and  _321
REMARK  138  A    between atoms: _321  and  _322
REMARK  139  A    between atoms: _325  and  _327
REMARK  140  A    between atoms: _327  and  _328
REMARK  141  A    between atoms: _327  and  _330
REMARK  142  A    between atoms: _330  and  _331
REMARK  143  A    between atoms: _334  and  _336
REMARK  144  A    between atoms: _336  and  _337
REMARK  145  A    between atoms: _336  and  _339
REMARK  146  A    between atoms: _342  and  _344
REMARK  147  A    between atoms: _344  and  _345
REMARK  148  A    between atoms: _344  and  _347
REMARK  149  A    between atoms: _347  and  _348
REMARK  150  A    between atoms: _348  and  _349
REMARK  151  A    between atoms: _349  and  _350
REMARK  152  A    between atoms: _359  and  _361
REMARK  153  A    between atoms: _361  and  _362
REMARK  154  A    between atoms: _361  and  _364
REMARK  155  A    between atoms: _364  and  _365
REMARK  156  A    between atoms: _368  and  _370
REMARK  157  A    between atoms: _370  and  _371
REMARK  158  A    between atoms: _370  and  _373
REMARK  159  A    between atoms: _373  and  _374
REMARK  160  A    between atoms: _377  and  _379
REMARK  161  A    between atoms: _379  and  _380
REMARK  162  A    between atoms: _379  and  _382
REMARK  163  A    between atoms: _382  and  _383
REMARK  164  A    between atoms: _383  and  _384
REMARK  165  A    between atoms: _389  and  _391
REMARK  166  A    between atoms: _391  and  _392
REMARK  167  A    between atoms: _391  and  _394
REMARK  168  A    between atoms: _397  and  _399
REMARK  169  A    between atoms: _399  and  _400
REMARK  170  A    between atoms: _399  and  _402
REMARK  171  A    between atoms: _402  and  _403
REMARK  172  A    between atoms: _406  and  _408
REMARK  173  A    between atoms: _408  and  _409
REMARK  174  A    between atoms: _408  and  _411
REMARK  175  A    between atoms: _411  and  _412
REMARK  176  A    between atoms: _412  and  _413
REMARK  177  A    between atoms: _415  and  _417
REMARK  178  A    between atoms: _417  and  _418
REMARK  179  A    between atoms: _417  and  _420
REMARK  180  A    between atoms: _420  and  _421
REMARK  181  A    between atoms: _421  and  _422
REMARK  182  A    between atoms: _425  and  _427
REMARK  183  A    between atoms: _427  and  _428
REMARK  184  A    between atoms: _427  and  _430
REMARK  185  A    between atoms: _430  and  _431
REMARK  186  A    between atoms: _434  and  _436
REMARK  187  A    between atoms: _436  and  _437
REMARK  188  A    between atoms: _436  and  _439
REMARK  189  A    between atoms: _439  and  _440
REMARK  190  A    between atoms: _443  and  _445
REMARK  191  A    between atoms: _445  and  _446
REMARK  192  A    between atoms: _445  and  _448
REMARK  193  A    between atoms: _448  and  _449
REMARK  194  A    between atoms: _454  and  _456
REMARK  195  A    between atoms: _456  and  _457
REMARK  196  A    between atoms: _460  and  _462
REMARK  197  A    between atoms: _462  and  _463
REMARK  198  A    between atoms: _462  and  _465
REMARK  199  A    between atoms: _465  and  _466
REMARK  200  A    between atoms: _469  and  _471
REMARK  201  A    between atoms: _471  and  _472
REMARK  202  A    between atoms: _471  and  _474
REMARK  203  A    between atoms: _477  and  _479
REMARK  204  A    between atoms: _479  and  _480
REMARK  205  A    between atoms: _479  and  _482
REMARK  206  A    between atoms: _482  and  _483
REMARK  207  A    between atoms: _483  and  _484
REMARK  208  A    between atoms: _484  and  _485
REMARK  209  A    between atoms: _494  and  _496
REMARK  210  A    between atoms: _496  and  _497
REMARK  211  A    between atoms: _496  and  _499
REMARK  212  A    between atoms: _499  and  _500
REMARK  213  A    between atoms: _503  and  _505
REMARK  214  A    between atoms: _505  and  _506
REMARK  215  A    between atoms: _505  and  _508
REMARK  216  A    between atoms: _508  and  _509
REMARK  217  A    between atoms: _512  and  _514
REMARK  218  A    between atoms: _514  and  _515
REMARK  219  A    between atoms: _514  and  _517
REMARK  220  A    between atoms: _517  and  _518
REMARK  221  A    between atoms: _518  and  _519
REMARK  222  A    between atoms: _524  and  _526
REMARK  223  A    between atoms: _526  and  _527
REMARK  224  A    between atoms: _526  and  _529
REMARK  225  A    between atoms: _532  and  _534
REMARK  226  A    between atoms: _534  and  _535
REMARK  227  A    between atoms: _534  and  _537
REMARK  228  A    between atoms: _537  and  _538
REMARK  229  A    between atoms: _541  and  _543
REMARK  230  A    between atoms: _543  and  _544
REMARK  231  A    between atoms: _543  and  _546
REMARK  232  A    between atoms: _546  and  _547
REMARK  233  A    between atoms: _547  and  _548
REMARK  234  A    between atoms: _550  and  _552
REMARK  235  A    between atoms: _552  and  _553
REMARK  236  A    between atoms: _552  and  _555
REMARK  237  A    between atoms: _555  and  _556
REMARK  238  A    between atoms: _556  and  _557
REMARK  239  A    between atoms: _560  and  _562
REMARK  240  A    between atoms: _562  and  _563
REMARK  241  A    between atoms: _562  and  _565
REMARK  242  A    between atoms: _565  and  _566
REMARK  243  A    between atoms: _569  and  _571
REMARK  244  A    between atoms: _571  and  _572
REMARK  245  A    between atoms: _571  and  _574
REMARK  246  A    between atoms: _574  and  _575
REMARK  247  A    between atoms: _575  and  _576
REMARK  248  A    between atoms: _581  and  _583
REMARK  249  A    between atoms: _583  and  _584
REMARK  250  A    between atoms: _583  and  _586
REMARK  251  A    between atoms: _586  and  _587
REMARK  252  A    between atoms: _590  and  _592
REMARK  253  A    between atoms: _592  and  _593
REMARK  254  A    between atoms: _592  and  _595
REMARK  255  A    between atoms: _595  and  _596
REMARK  256  A    between atoms: _601  and  _603
REMARK  257  A    between atoms: _603  and  _604
REMARK  258  A    between atoms: _607  and  _609
REMARK  259  A    between atoms: _609  and  _610
REMARK  260  A    between atoms: _609  and  _612
REMARK  261  A    between atoms: _612  and  _613
REMARK  262  A    between atoms: _616  and  _618
REMARK  263  A    between atoms: _618  and  _619
REMARK  264  A    between atoms: _618  and  _621
REMARK  265  A    between atoms: _624  and  _626
REMARK  266  A    between atoms: _626  and  _627
REMARK  267  A    between atoms: _626  and  _629
REMARK  268  A    between atoms: _629  and  _630
REMARK  269  A    between atoms: _630  and  _631
REMARK  270  A    between atoms: _631  and  _632
REMARK  271  A    between atoms: _641  and  _643
REMARK  272  A    between atoms: _643  and  _644
REMARK  273  A    between atoms: _643  and  _646
REMARK  274  A    between atoms: _646  and  _647
REMARK  275  A    between atoms: _650  and  _652
REMARK  276  A    between atoms: _652  and  _653
REMARK  277  A    between atoms: _652  and  _655
REMARK  278  A    between atoms: _655  and  _656
REMARK  279  A    between atoms: _659  and  _661
REMARK  280  A    between atoms: _661  and  _662
REMARK  281  A    between atoms: _661  and  _664
REMARK  282  A    between atoms: _664  and  _665
REMARK  283  A    between atoms: _665  and  _666
REMARK  284  A    between atoms: _666  and  _667
REMARK  285  A    between atoms: _676  and  _678
REMARK  286  A    between atoms: _678  and  _679
REMARK  287  A    between atoms: _678  and  _681
REMARK  288  A    between atoms: _681  and  _682
REMARK  289  A    between atoms: _682  and  _683
REMARK  290  A    between atoms: _688  and  _690
REMARK  291  A    between atoms: _690  and  _691
REMARK  292  A    between atoms: _690  and  _693
REMARK  293  A    between atoms: _696  and  _698
REMARK  294  A    between atoms: _698  and  _699
REMARK  295  A    between atoms: _698  and  _701
REMARK  296  A    between atoms: _701  and  _702
REMARK                            x       y       z     vdW  Elec       q    Type
REMARK                         _______ _______ _______ _____ _____    ______ ____
ROOT
ATOM      1  C   THR A   1       9.655  -6.012  -1.647  0.00  0.00    +0.241 C 
ATOM      2  O   THR A   1       8.768  -5.746  -0.829  0.00  0.00    -0.274 OA
ATOM      3  N   ASN A   2       9.385  -6.411  -2.884  0.00  0.00    -0.298 N 
ATOM      4  H   ASN A   2      10.163  -6.617  -3.542  0.00  0.00    +0.150 HD
ENDROOT
BRANCH   1   5
ATOM      5  CA  THR A   1      11.132  -5.905  -1.273  0.00  0.00    +0.172 C 
BRANCH   5   6
ATOM      6  N   THR A   1      11.865  -7.025  -1.857  0.00  0.00    -0.236 NA
ATOM      7  H   THR A   1      12.619  -6.843  -2.550  0.00  0.00    +0.142 HD
ENDBRANCH   5   6
BRANCH   5   8
ATOM      8  CB  THR A   1      11.696  -4.563  -1.768  0.00  0.00    +0.135 C 
ATOM      9  CG2 THR A   1      10.817  -3.398  -1.310  0.00  0.00    +0.034 C 
BRANCH   8  10
ATOM     10  OG1 THR A   1      13.020  -4.397  -1.252  0.00  0.00    -0.383 OA
ATOM     11  HG1 THR A   1      13.390  -3.534  -1.567  0.00  0.00    +0.210 HD
ENDBRANCH   8  10
ENDBRANCH   5   8
ENDBRANCH   1   5
BRANCH   3  12
ATOM     12  CA  ASN A   2       8.009  -6.561  -3.324  0.00  0.00    +0.146 C 
BRANCH  12  13
ATOM     13  C   ASN A   2       7.325  -7.762  -2.677  0.00  0.00    +0.227 C 
ATOM     14  O   ASN A   2       6.127  -7.730  -2.398  0.00  0.00    -0.286 OA
ENDBRANCH  12  13
BRANCH  12  15
ATOM     15  CB  ASN A   2       7.943  -6.672  -4.844  0.00  0.00    +0.112 C 
BRANCH  15  16
ATOM     16  CG  ASN A   2       8.018  -5.324  -5.512  0.00  0.00    +0.222 C 
ATOM     17  OD1 ASN A   2       7.343  -4.380  -5.090  0.00  0.00    -0.275 OA
ATOM     18  ND2 ASN A   2       8.834  -5.216  -6.555  0.00  0.00    -0.329 N 
ATOM     19 HD21 ASN A   2       9.383  -6.040  -6.874  0.00  0.00    +0.145 HD
ATOM     20 HD22 ASN A   2       8.924  -4.307  -7.053  0.00  0.00    +0.145 HD
ENDBRANCH  15  16
ENDBRANCH  12  15
ENDBRANCH   3  12
TORSDOF 8
REMARK  Name = ../refined-set-2016/3v2p/3v2p_pocket.pdb
REMARK  296 active torsions:
REMARK  status: ('A' for Active; 'I' for Inactive)
REMARK    1  A    between atoms: _1  and  _3
REMARK    2  A    between atoms: _3  and  _4
REMARK    3  A    between atoms: _3  and  _6
REMARK    4  A    between atoms: _6  and  _7
REMARK    5  A    between atoms: _7  and  _8
REMARK    6  A    between atoms: _10  and  _12
REMARK    7  A    between atoms: _12  and  _13
REMARK    8  A    between atoms: _12  and  _15
REMARK    9  A    between atoms: _15  and  _16
REMARK   10  A    between atoms: _16  and  _17
REMARK   11  A    between atoms: _20  and  _22
REMARK   12  A    between atoms: _22  and  _23
REMARK   13  A    between atoms: _22  and  _25
REMARK   14  A    between atoms: _25  and  _26
REMARK   15  A    between atoms: _29  and  _31
REMARK   16  A    between atoms: _31  and  _32
REMARK   17  A    between atoms: _31  and  _34
REMARK   18  A    between atoms: _34  and  _35
REMARK   19  A    between atoms: _38  and  _40
REMARK   20  A    between atoms: _40  and  _41
REMARK   21  A    between atoms: _40  and  _43
REMARK   22  A    between atoms: _43  and  _44
REMARK   23  A    between atoms: _49  and  _51
REMARK   24  A    between atoms: _51  and  _52
REMARK   25  A    between atoms: _55  and  _57
REMARK   26  A    between atoms: _57  and  _58
REMARK   27  A    between atoms: _57  and  _60
REMARK   28  A    between atoms: _60  and  _61
REMARK   29  A    between atoms: _64  and  _66
REMARK   30  A    between atoms: _66  and  _67
REMARK   31  A    between atoms: _66  and  _69
REMARK   32  A    between atoms: _72  and  _74
REMARK   33  A    between atoms: _74  and  _75
REMARK   34  A    between atoms: _74  and  _77
REMARK   35  A    between atoms: _77  and  _78
REMARK   36  A    between atoms: _78  and  _79
REMARK   37  A    between atoms: _79  and  _80
REMARK   38  A    between atoms: _89  and  _91
REMARK   39  A    between atoms: _91  and  _92
REMARK   40  A    between atoms: _91  and  _94
REMARK   41  A    between atoms: _94  and  _95
REMARK   42  A    between atoms: _98  and  _100
REMARK   43  A    between atoms: _100  and  _101
REMARK   44  A    between atoms: _100  and  _103
REMARK   45  A    between atoms: _103  and  _104
REMARK   46  A    between atoms: _107  and  _109
REMARK   47  A    between atoms: _109  and  _110
REMARK   48  A    between atoms: _109  and  _112
REMARK   49  A    between atoms: _112  and  _113
REMARK   50  A    between atoms: _113  and  _114
REMARK   51  A    between atoms: _119  and  _121
REMARK   52  A    between atoms: _121  and  _122
REMARK   53  A    between atoms: _121  and  _124
REMARK   54  A    between atoms: _127  and  _129
REMARK   55  A    between atoms: _129  and  _130
REMARK   56  A    between atoms: _129  and  _132
REMARK   57  A    between atoms: _132  and  _133
REMARK   58  A    between atoms: _136  and  _138
REMARK   59  A    between atoms: _138  and  _139
REMARK   60  A    between atoms: _138  and  _141
REMARK   61  A    between atoms: _141  and  _142
REMARK   62  A    between atoms: _142  and  _143
REMARK   63  A    between atoms: _145  and  _147
REMARK   64  A    between atoms: _147  and  _148
REMARK   65  A    between atoms: _147  and  _150
REMARK   66  A    between atoms: _150  and  _151
REMARK   67  A    between atoms: _151  and  _152
REMARK   68  A    between atoms: _155  and  _157
REMARK   69  A    between atoms: _157  and  _158
REMARK   70  A    between atoms: _157  and  _160
REMARK   71  A    between atoms: _160  and  _161
REMARK   72  A    between atoms: _164  and  _166
REMARK   73  A    between atoms: _166  and  _167
REMARK   74  A    between atoms: _166  and  _169
REMARK   75  A    between atoms: _169  and  _170
REMARK   76  A    between atoms: _173  and  _175
REMARK   77  A    between atoms: _175  and  _176
REMARK   78  A    between atoms: _175  and  _178
REMARK   79  A    between atoms: _178  and  _179
REMARK   80  A    between atoms: _184  and  _186
REMARK   81  A    between atoms: _186  and  _187
REMARK   82  A    between atoms: _190  and  _192
REMARK   83  A    between atoms: _192  and  _193
REMARK   84  A    between atoms: _192  and  _195
REMARK   85  A    between atoms: _195  and  _196
REMARK   86  A    between atoms: _199  and  _201
REMARK   87  A    between atoms: _201  and  _202
REMARK   88  A    between atoms: _201  and  _204
REMARK   89  A    between atoms: _207  and  _209
REMARK   90  A    between atoms: _209  and  _210
REMARK   91  A    between atoms: _209  and  _212
REMARK   92  A    between atoms: _212  and  _213
REMARK   93  A    between atoms: _213  and  _214
REMARK   94  A    between atoms: _214  and  _215
REMARK   95  A    between atoms: _224  and  _226
REMARK   96  A    between atoms: _226  and  _227
REMARK   97  A    between atoms: _226  and  _229
REMARK   98  A    between atoms: _229  and  _230
REMARK   99  A    between atoms: _233  and  _235
REMARK  100  A    between atoms: _235  and  _236
REMARK  101  A    between atoms: _235  and  _238
REMARK  102  A    between atoms: _238  and  _239
REMARK  103  A    between atoms: _242  and  _244
REMARK  104  A    between atoms: _244  and  _245
REMARK  105  A    between atoms: _244  and  _247
REMARK  106  A    between atoms: _247  and  _248
REMARK  107  A    between atoms: _248  and  _249
REMARK  108  A    between atoms: _254  and  _256
REMARK  109  A    between atoms: _256  and  _257
REMARK  110  A    between atoms: _256  and  _259
REMARK  111  A    between atoms: _262  and  _264
REMARK  112  A    between atoms: _264  and  _265
REMARK  113  A    between atoms: _264  and  _267
REMARK  114  A    between atoms: _267  and  _268
REMARK  115  A    between atoms: _271  and  _273
REMARK  116  A    between atoms: _273  and  _274
REMARK  117  A    between atoms: _273  and  _276
REMARK  118  A    between atoms: _276  and  _277
REMARK  119  A    between atoms: _277  and  _278
REMARK  120  A    between atoms: _280  and  _282
REMARK  121  A    between atoms: _282  and  _283
REMARK  122  A    between atoms: _282  and  _285
REMARK  123  A    between atoms: _285  and  _286
REMARK  124  A    between atoms: _286  and  _287
REMARK  125  A    between atoms: _290  and  _292
REMARK  126  A    between atoms: _292  and  _293
REMARK  127  A    between atoms: _292  and  _295
REMARK  128  A    between atoms: _295  and  _296
REMARK  129  A    between atoms: _299  and  _301
REMARK  130  A    between atoms: _301  and  _302
REMARK  131  A    between atoms: _301  and  _304
REMARK  132  A    between atoms: _304  and  _305
REMARK  133  A    between atoms: _308  and  _310
REMARK  134  A    between atoms: _310  and  _311
REMARK  135  A    between atoms: _310  and  _313
REMARK  136  A    between atoms: _313  and  _314
REMARK  137  A    between atoms: _319  and  _321
REMARK  138  A    between atoms: _321  and  _322
REMARK  139  A    between atoms: _325  and  _327
REMARK  140  A    between atoms: _327  and  _328
REMARK  141  A    between atoms: _327  and  _330
REMARK  142  A    between atoms: _330  and  _331
REMARK  143  A    between atoms: _334  and  _336
REMARK  144  A    between atoms: _336  and  _337
REMARK  145  A    between atoms: _336  and  _339
REMARK  146  A    between atoms: _342  and  _344
REMARK  147  A    between atoms: _344  and  _345
REMARK  148  A    between atoms: _344  and  _347
REMARK  149  A    between atoms: _347  and  _348
REMARK  150  A    between atoms: _348  and  _349
REMARK  151  A    between atoms: _349  and  _350
REMARK  152  A    between atoms: _359  and  _361
REMARK  153  A    between atoms: _361  and  _362
REMARK  154  A    between atoms: _361  and  _364
REMARK  155  A    between atoms: _364  and  _365
REMARK  156  A    between atoms: _368  and  _370
REMARK  157  A    between atoms: _370  and  _371
REMARK  158  A    between atoms: _370  and  _373
REMARK  159  A    between atoms: _373  and  _374
REMARK  160  A    between atoms: _377  and  _379
REMARK  161  A    between atoms: _379  and  _380
REMARK  162  A    between atoms: _379  and  _382
REMARK  163  A    between atoms: _382  and  _383
REMARK  164  A    between atoms: _383  and  _384
REMARK  165  A    between atoms: _389  and  _391
REMARK  166  A    between atoms: _391  and  _392
REMARK  167  A    between atoms: _391  and  _394
REMARK  168  A    between atoms: _397  and  _399
REMARK  169  A    between atoms: _399  and  _400
REMARK  170  A    between atoms: _399  and  _402
REMARK  171  A    between atoms: _402  and  _403
REMARK  172  A    between atoms: _406  and  _408
REMARK  173  A    between atoms: _408  and  _409
REMARK  174  A    between atoms: _408  and  _411
REMARK  175  A    between atoms: _411  and  _412
REMARK  176  A    between atoms: _412  and  _413
REMARK  177  A    between atoms: _415  and  _417
REMARK  178  A    between atoms: _417  and  _418
REMARK  179  A    between atoms: _417  and  _420
REMARK  180  A    between atoms: _420  and  _421
REMARK  181  A    between atoms: _421  and  _422
REMARK  182  A    between atoms: _425  and  _427
REMARK  183  A    between atoms: _427  and  _428
REMARK  184  A    between atoms: _427  and  _430
REMARK  185  A    between atoms: _430  and  _431
REMARK  186  A    between atoms: _434  and  _436
REMARK  187  A    between atoms: _436  and  _437
REMARK  188  A    between atoms: _436  and  _439
REMARK  189  A    between atoms: _439  and  _440
REMARK  190  A    between atoms: _443  and  _445
REMARK  191  A    between atoms: _445  and  _446
REMARK  192  A    between atoms: _445  and  _448
REMARK  193  A    between atoms: _448  and  _449
REMARK  194  A    between atoms: _454  and  _456
REMARK  195  A    between atoms: _456  and  _457
REMARK  196  A    between atoms: _460  and  _462
REMARK  197  A    between atoms: _462  and  _463
REMARK  198  A    between atoms: _462  and  _465
REMARK  199  A    between atoms: _465  and  _466
REMARK  200  A    between atoms: _469  and  _471
REMARK  201  A    between atoms: _471  and  _472
REMARK  202  A    between atoms: _471  and  _474
REMARK  203  A    between atoms: _477  and  _479
REMARK  204  A    between atoms: _479  and  _480
REMARK  205  A    between atoms: _479  and  _482
REMARK  206  A    between atoms: _482  and  _483
REMARK  207  A    between atoms: _483  and  _484
REMARK  208  A    between atoms: _484  and  _485
REMARK  209  A    between atoms: _494  and  _496
REMARK  210  A    between atoms: _496  and  _497
REMARK  211  A    between atoms: _496  and  _499
REMARK  212  A    between atoms: _499  and  _500
REMARK  213  A    between atoms: _503  and  _505
REMARK  214  A    between atoms: _505  and  _506
REMARK  215  A    between atoms: _505  and  _508
REMARK  216  A    between atoms: _508  and  _509
REMARK  217  A    between atoms: _512  and  _514
REMARK  218  A    between atoms: _514  and  _515
REMARK  219  A    between atoms: _514  and  _517
REMARK  220  A    between atoms: _517  and  _518
REMARK  221  A    between atoms: _518  and  _519
REMARK  222  A    between atoms: _524  and  _526
REMARK  223  A    between atoms: _526  and  _527
REMARK  224  A    between atoms: _526  and  _529
REMARK  225  A    between atoms: _532  and  _534
REMARK  226  A    between atoms: _534  and  _535
REMARK  227  A    between atoms: _534  and  _537
REMARK  228  A    between atoms: _537  and  _538
REMARK  229  A    between atoms: _541  and  _543
REMARK  230  A    between atoms: _543  and  _544
REMARK  231  A    between atoms: _543  and  _546
REMARK  232  A    between atoms: _546  and  _547
REMARK  233  A    between atoms: _547  and  _548
REMARK  234  A    between atoms: _550  and  _552
REMARK  235  A    between atoms: _552  and  _553
REMARK  236  A    between atoms: _552  and  _555
REMARK  237  A    between atoms: _555  and  _556
REMARK  238  A    between atoms: _556  and  _557
REMARK  239  A    between atoms: _560  and  _562
REMARK  240  A    between atoms: _562  and  _563
REMARK  241  A    between atoms: _562  and  _565
REMARK  242  A    between atoms: _565  and  _566
REMARK  243  A    between atoms: _569  and  _571
REMARK  244  A    between atoms: _571  and  _572
REMARK  245  A    between atoms: _571  and  _574
REMARK  246  A    between atoms: _574  and  _575
REMARK  247  A    between atoms: _575  and  _576
REMARK  248  A    between atoms: _581  and  _583
REMARK  249  A    between atoms: _583  and  _584
REMARK  250  A    between atoms: _583  and  _586
REMARK  251  A    between atoms: _586  and  _587
REMARK  252  A    between atoms: _590  and  _592
REMARK  253  A    between atoms: _592  and  _593
REMARK  254  A    between atoms: _592  and  _595
REMARK  255  A    between atoms: _595  and  _596
REMARK  256  A    between atoms: _601  and  _603
REMARK  257  A    between atoms: _603  and  _604
REMARK  258  A    between atoms: _607  and  _609
REMARK  259  A    between atoms: _609  and  _610
REMARK  260  A    between atoms: _609  and  _612
REMARK  261  A    between atoms: _612  and  _613
REMARK  262  A    between atoms: _616  and  _618
REMARK  263  A    between atoms: _618  and  _619
REMARK  264  A    between atoms: _618  and  _621
REMARK  265  A    between atoms: _624  and  _626
REMARK  266  A    between atoms: _626  and  _627
REMARK  267  A    between atoms: _626  and  _629
REMARK  268  A    between atoms: _629  and  _630
REMARK  269  A    between atoms: _630  and  _631
REMARK  270  A    between atoms: _631  and  _632
REMARK  271  A    between atoms: _641  and  _643
REMARK  272  A    between atoms: _643  and  _644
REMARK  273  A    between atoms: _643  and  _646
REMARK  274  A    between atoms: _646  and  _647
REMARK  275  A    between atoms: _650  and  _652
REMARK  276  A    between atoms: _652  and  _653
REMARK  277  A    between atoms: _652  and  _655
REMARK  278  A    between atoms: _655  and  _656
REMARK  279  A    between atoms: _659  and  _661
REMARK  280  A    between atoms: _661  and  _662
REMARK  281  A    between atoms: _661  and  _664
REMARK  282  A    between atoms: _664  and  _665
REMARK  283  A    between atoms: _665  and  _666
REMARK  284  A    between atoms: _666  and  _667
REMARK  285  A    between atoms: _676  and  _678
REMARK  286  A    between atoms: _678  and  _679
REMARK  287  A    between atoms: _678  and  _681
REMARK  288  A    between atoms: _681  and  _682
REMARK  289  A    between atoms: _682  and  _683
REMARK  290  A    between atoms: _688  and  _690
REMARK  291  A    between atoms: _690  and  _691
REMARK  292  A    between atoms: _690  and  _693
REMARK  293  A    between atoms: _696  and  _698
REMARK  294  A    between atoms: _698  and  _699
REMARK  295  A    between atoms: _698  and  _701
REMARK  296  A    between atoms: _701  and  _702
REMARK                            x       y       z     vdW  Elec       q    Type
REMARK                         _______ _______ _______ _____ _____    ______ ____
ROOT
ATOM      1  C   ALA A   1       6.668  -7.481   1.758  0.00  0.00    +0.238 C 
ATOM      2  O   ALA A   1       5.886  -7.530   2.709  0.00  0.00    -0.274 OA
ATOM      3  N   LEU A   2       6.568  -6.580   0.785  0.00  0.00    -0.298 N 
ATOM      4  H   LEU A   2       7.263  -6.584   0.011  0.00  0.00    +0.150 HD
ENDROOT
BRANCH   1   5
ATOM      5  CA  ALA A   1       7.822  -8.471   1.658  0.00  0.00    +0.145 C 
ATOM      6  CB  ALA A   1       9.096  -7.844   2.212  0.00  0.00    +0.028 C 
BRANCH   5   7
ATOM      7  N   ALA A   1       8.037  -8.904   0.283  0.00  0.00    -0.238 NA
ATOM      8  H   ALA A   1       8.928  -8.654  -0.192  0.00  0.00    +0.142 HD
ENDBRANCH   5   7
ENDBRANCH   1   5
BRANCH   3   9
ATOM      9  CA  LEU A   2       5.498  -5.584   0.784  0.00  0.00    +0.137 C 
BRANCH   9  10
ATOM     10  C   LEU A   2       4.143  -6.229   0.565  0.00  0.00    +0.227 C 
ATOM     11  O   LEU A   2       3.134  -5.767   1.099  0.00  0.00    -0.286 OA
ENDBRANCH   9  10
BRANCH   9  12
ATOM     12  CB  LEU A   2       5.738  -4.527  -0.298  0.00  0.00    +0.028 C 
BRANCH  12  13
ATOM     13  CG  LEU A   2       6.258  -3.187   0.205  0.00  0.00    +0.002 C 
ATOM     14  CD2 LEU A   2       5.186  -2.530   1.070  0.00  0.00    +0.000 C 
ATOM     15  CD1 LEU A   2       6.621  -2.299  -0.971  0.00  0.00    +0.000 C 
ENDBRANCH  12  13
ENDBRANCH   9  12
ENDBRANCH   3   9
TORSDOF 6
REMARK  Name = ../refined-set-2016/3v2p/3v2p_pocket.pdb
REMARK  296 active torsions:
REMARK  status: ('A' for Active; 'I' for Inactive)
REMARK    1  A    between atoms: _1  and  _3
REMARK    2  A    between atoms: _3  and  _4
REMARK    3  A    between atoms: _3  and  _6
REMARK    4  A    between atoms: _6  and  _7
REMARK    5  A    between atoms: _7  and  _8
REMARK    6  A    between atoms: _10  and  _12
REMARK    7  A    between atoms: _12  and  _13
REMARK    8  A    between atoms: _12  and  _15
REMARK    9  A    between atoms: _15  and  _16
REMARK   10  A    between atoms: _16  and  _17
REMARK   11  A    between atoms: _20  and  _22
REMARK   12  A    between atoms: _22  and  _23
REMARK   13  A    between atoms: _22  and  _25
REMARK   14  A    between atoms: _25  and  _26
REMARK   15  A    between atoms: _29  and  _31
REMARK   16  A    between atoms: _31  and  _32
REMARK   17  A    between atoms: _31  and  _34
REMARK   18  A    between atoms: _34  and  _35
REMARK   19  A    between atoms: _38  and  _40
REMARK   20  A    between atoms: _40  and  _41
REMARK   21  A    between atoms: _40  and  _43
REMARK   22  A    between atoms: _43  and  _44
REMARK   23  A    between atoms: _49  and  _51
REMARK   24  A    between atoms: _51  and  _52
REMARK   25  A    between atoms: _55  and  _57
REMARK   26  A    between atoms: _57  and  _58
REMARK   27  A    between atoms: _57  and  _60
REMARK   28  A    between atoms: _60  and  _61
REMARK   29  A    between atoms: _64  and  _66
REMARK   30  A    between atoms: _66  and  _67
REMARK   31  A    between atoms: _66  and  _69
REMARK   32  A    between atoms: _72  and  _74
REMARK   33  A    between atoms: _74  and  _75
REMARK   34  A    between atoms: _74  and  _77
REMARK   35  A    between atoms: _77  and  _78
REMARK   36  A    between atoms: _78  and  _79
REMARK   37  A    between atoms: _79  and  _80
REMARK   38  A    between atoms: _89  and  _91
REMARK   39  A    between atoms: _91  and  _92
REMARK   40  A    between atoms: _91  and  _94
REMARK   41  A    between atoms: _94  and  _95
REMARK   42  A    between atoms: _98  and  _100
REMARK   43  A    between atoms: _100  and  _101
REMARK   44  A    between atoms: _100  and  _103
REMARK   45  A    between atoms: _103  and  _104
REMARK   46  A    between atoms: _107  and  _109
REMARK   47  A    between atoms: _109  and  _110
REMARK   48  A    between atoms: _109  and  _112
REMARK   49  A    between atoms: _112  and  _113
REMARK   50  A    between atoms: _113  and  _114
REMARK   51  A    between atoms: _119  and  _121
REMARK   52  A    between atoms: _121  and  _122
REMARK   53  A    between atoms: _121  and  _124
REMARK   54  A    between atoms: _127  and  _129
REMARK   55  A    between atoms: _129  and  _130
REMARK   56  A    between atoms: _129  and  _132
REMARK   57  A    between atoms: _132  and  _133
REMARK   58  A    between atoms: _136  and  _138
REMARK   59  A    between atoms: _138  and  _139
REMARK   60  A    between atoms: _138  and  _141
REMARK   61  A    between atoms: _141  and  _142
REMARK   62  A    between atoms: _142  and  _143
REMARK   63  A    between atoms: _145  and  _147
REMARK   64  A    between atoms: _147  and  _148
REMARK   65  A    between atoms: _147  and  _150
REMARK   66  A    between atoms: _150  and  _151
REMARK   67  A    between atoms: _151  and  _152
REMARK   68  A    between atoms: _155  and  _157
REMARK   69  A    between atoms: _157  and  _158
REMARK   70  A    between atoms: _157  and  _160
REMARK   71  A    between atoms: _160  and  _161
REMARK   72  A    between atoms: _164  and  _166
REMARK   73  A    between atoms: _166  and  _167
REMARK   74  A    between atoms: _166  and  _169
REMARK   75  A    between atoms: _169  and  _170
REMARK   76  A    between atoms: _173  and  _175
REMARK   77  A    between atoms: _175  and  _176
REMARK   78  A    between atoms: _175  and  _178
REMARK   79  A    between atoms: _178  and  _179
REMARK   80  A    between atoms: _184  and  _186
REMARK   81  A    between atoms: _186  and  _187
REMARK   82  A    between atoms: _190  and  _192
REMARK   83  A    between atoms: _192  and  _193
REMARK   84  A    between atoms: _192  and  _195
REMARK   85  A    between atoms: _195  and  _196
REMARK   86  A    between atoms: _199  and  _201
REMARK   87  A    between atoms: _201  and  _202
REMARK   88  A    between atoms: _201  and  _204
REMARK   89  A    between atoms: _207  and  _209
REMARK   90  A    between atoms: _209  and  _210
REMARK   91  A    between atoms: _209  and  _212
REMARK   92  A    between atoms: _212  and  _213
REMARK   93  A    between atoms: _213  and  _214
REMARK   94  A    between atoms: _214  and  _215
REMARK   95  A    between atoms: _224  and  _226
REMARK   96  A    between atoms: _226  and  _227
REMARK   97  A    between atoms: _226  and  _229
REMARK   98  A    between atoms: _229  and  _230
REMARK   99  A    between atoms: _233  and  _235
REMARK  100  A    between atoms: _235  and  _236
REMARK  101  A    between atoms: _235  and  _238
REMARK  102  A    between atoms: _238  and  _239
REMARK  103  A    between atoms: _242  and  _244
REMARK  104  A    between atoms: _244  and  _245
REMARK  105  A    between atoms: _244  and  _247
REMARK  106  A    between atoms: _247  and  _248
REMARK  107  A    between atoms: _248  and  _249
REMARK  108  A    between atoms: _254  and  _256
REMARK  109  A    between atoms: _256  and  _257
REMARK  110  A    between atoms: _256  and  _259
REMARK  111  A    between atoms: _262  and  _264
REMARK  112  A    between atoms: _264  and  _265
REMARK  113  A    between atoms: _264  and  _267
REMARK  114  A    between atoms: _267  and  _268
REMARK  115  A    between atoms: _271  and  _273
REMARK  116  A    between atoms: _273  and  _274
REMARK  117  A    between atoms: _273  and  _276
REMARK  118  A    between atoms: _276  and  _277
REMARK  119  A    between atoms: _277  and  _278
REMARK  120  A    between atoms: _280  and  _282
REMARK  121  A    between atoms: _282  and  _283
REMARK  122  A    between atoms: _282  and  _285
REMARK  123  A    between atoms: _285  and  _286
REMARK  124  A    between atoms: _286  and  _287
REMARK  125  A    between atoms: _290  and  _292
REMARK  126  A    between atoms: _292  and  _293
REMARK  127  A    between atoms: _292  and  _295
REMARK  128  A    between atoms: _295  and  _296
REMARK  129  A    between atoms: _299  and  _301
REMARK  130  A    between atoms: _301  and  _302
REMARK  131  A    between atoms: _301  and  _304
REMARK  132  A    between atoms: _304  and  _305
REMARK  133  A    between atoms: _308  and  _310
REMARK  134  A    between atoms: _310  and  _311
REMARK  135  A    between atoms: _310  and  _313
REMARK  136  A    between atoms: _313  and  _314
REMARK  137  A    between atoms: _319  and  _321
REMARK  138  A    between atoms: _321  and  _322
REMARK  139  A    between atoms: _325  and  _327
REMARK  140  A    between atoms: _327  and  _328
REMARK  141  A    between atoms: _327  and  _330
REMARK  142  A    between atoms: _330  and  _331
REMARK  143  A    between atoms: _334  and  _336
REMARK  144  A    between atoms: _336  and  _337
REMARK  145  A    between atoms: _336  and  _339
REMARK  146  A    between atoms: _342  and  _344
REMARK  147  A    between atoms: _344  and  _345
REMARK  148  A    between atoms: _344  and  _347
REMARK  149  A    between atoms: _347  and  _348
REMARK  150  A    between atoms: _348  and  _349
REMARK  151  A    between atoms: _349  and  _350
REMARK  152  A    between atoms: _359  and  _361
REMARK  153  A    between atoms: _361  and  _362
REMARK  154  A    between atoms: _361  and  _364
REMARK  155  A    between atoms: _364  and  _365
REMARK  156  A    between atoms: _368  and  _370
REMARK  157  A    between atoms: _370  and  _371
REMARK  158  A    between atoms: _370  and  _373
REMARK  159  A    between atoms: _373  and  _374
REMARK  160  A    between atoms: _377  and  _379
REMARK  161  A    between atoms: _379  and  _380
REMARK  162  A    between atoms: _379  and  _382
REMARK  163  A    between atoms: _382  and  _383
REMARK  164  A    between atoms: _383  and  _384
REMARK  165  A    between atoms: _389  and  _391
REMARK  166  A    between atoms: _391  and  _392
REMARK  167  A    between atoms: _391  and  _394
REMARK  168  A    between atoms: _397  and  _399
REMARK  169  A    between atoms: _399  and  _400
REMARK  170  A    between atoms: _399  and  _402
REMARK  171  A    between atoms: _402  and  _403
REMARK  172  A    between atoms: _406  and  _408
REMARK  173  A    between atoms: _408  and  _409
REMARK  174  A    between atoms: _408  and  _411
REMARK  175  A    between atoms: _411  and  _412
REMARK  176  A    between atoms: _412  and  _413
REMARK  177  A    between atoms: _415  and  _417
REMARK  178  A    between atoms: _417  and  _418
REMARK  179  A    between atoms: _417  and  _420
REMARK  180  A    between atoms: _420  and  _421
REMARK  181  A    between atoms: _421  and  _422
REMARK  182  A    between atoms: _425  and  _427
REMARK  183  A    between atoms: _427  and  _428
REMARK  184  A    between atoms: _427  and  _430
REMARK  185  A    between atoms: _430  and  _431
REMARK  186  A    between atoms: _434  and  _436
REMARK  187  A    between atoms: _436  and  _437
REMARK  188  A    between atoms: _436  and  _439
REMARK  189  A    between atoms: _439  and  _440
REMARK  190  A    between atoms: _443  and  _445
REMARK  191  A    between atoms: _445  and  _446
REMARK  192  A    between atoms: _445  and  _448
REMARK  193  A    between atoms: _448  and  _449
REMARK  194  A    between atoms: _454  and  _456
REMARK  195  A    between atoms: _456  and  _457
REMARK  196  A    between atoms: _460  and  _462
REMARK  197  A    between atoms: _462  and  _463
REMARK  198  A    between atoms: _462  and  _465
REMARK  199  A    between atoms: _465  and  _466
REMARK  200  A    between atoms: _469  and  _471
REMARK  201  A    between atoms: _471  and  _472
REMARK  202  A    between atoms: _471  and  _474
REMARK  203  A    between atoms: _477  and  _479
REMARK  204  A    between atoms: _479  and  _480
REMARK  205  A    between atoms: _479  and  _482
REMARK  206  A    between atoms: _482  and  _483
REMARK  207  A    between atoms: _483  and  _484
REMARK  208  A    between atoms: _484  and  _485
REMARK  209  A    between atoms: _494  and  _496
REMARK  210  A    between atoms: _496  and  _497
REMARK  211  A    between atoms: _496  and  _499
REMARK  212  A    between atoms: _499  and  _500
REMARK  213  A    between atoms: _503  and  _505
REMARK  214  A    between atoms: _505  and  _506
REMARK  215  A    between atoms: _505  and  _508
REMARK  216  A    between atoms: _508  and  _509
REMARK  217  A    between atoms: _512  and  _514
REMARK  218  A    between atoms: _514  and  _515
REMARK  219  A    between atoms: _514  and  _517
REMARK  220  A    between atoms: _517  and  _518
REMARK  221  A    between atoms: _518  and  _519
REMARK  222  A    between atoms: _524  and  _526
REMARK  223  A    between atoms: _526  and  _527
REMARK  224  A    between atoms: _526  and  _529
REMARK  225  A    between atoms: _532  and  _534
REMARK  226  A    between atoms: _534  and  _535
REMARK  227  A    between atoms: _534  and  _537
REMARK  228  A    between atoms: _537  and  _538
REMARK  229  A    between atoms: _541  and  _543
REMARK  230  A    between atoms: _543  and  _544
REMARK  231  A    between atoms: _543  and  _546
REMARK  232  A    between atoms: _546  and  _547
REMARK  233  A    between atoms: _547  and  _548
REMARK  234  A    between atoms: _550  and  _552
REMARK  235  A    between atoms: _552  and  _553
REMARK  236  A    between atoms: _552  and  _555
REMARK  237  A    between atoms: _555  and  _556
REMARK  238  A    between atoms: _556  and  _557
REMARK  239  A    between atoms: _560  and  _562
REMARK  240  A    between atoms: _562  and  _563
REMARK  241  A    between atoms: _562  and  _565
REMARK  242  A    between atoms: _565  and  _566
REMARK  243  A    between atoms: _569  and  _571
REMARK  244  A    between atoms: _571  and  _572
REMARK  245  A    between atoms: _571  and  _574
REMARK  246  A    between atoms: _574  and  _575
REMARK  247  A    between atoms: _575  and  _576
REMARK  248  A    between atoms: _581  and  _583
REMARK  249  A    between atoms: _583  and  _584
REMARK  250  A    between atoms: _583  and  _586
REMARK  251  A    between atoms: _586  and  _587
REMARK  252  A    between atoms: _590  and  _592
REMARK  253  A    between atoms: _592  and  _593
REMARK  254  A    between atoms: _592  and  _595
REMARK  255  A    between atoms: _595  and  _596
REMARK  256  A    between atoms: _601  and  _603
REMARK  257  A    between atoms: _603  and  _604
REMARK  258  A    between atoms: _607  and  _609
REMARK  259  A    between atoms: _609  and  _610
REMARK  260  A    between atoms: _609  and  _612
REMARK  261  A    between atoms: _612  and  _613
REMARK  262  A    between atoms: _616  and  _618
REMARK  263  A    between atoms: _618  and  _619
REMARK  264  A    between atoms: _618  and  _621
REMARK  265  A    between atoms: _624  and  _626
REMARK  266  A    between atoms: _626  and  _627
REMARK  267  A    between atoms: _626  and  _629
REMARK  268  A    between atoms: _629  and  _630
REMARK  269  A    between atoms: _630  and  _631
REMARK  270  A    between atoms: _631  and  _632
REMARK  271  A    between atoms: _641  and  _643
REMARK  272  A    between atoms: _643  and  _644
REMARK  273  A    between atoms: _643  and  _646
REMARK  274  A    between atoms: _646  and  _647
REMARK  275  A    between atoms: _650  and  _652
REMARK  276  A    between atoms: _652  and  _653
REMARK  277  A    between atoms: _652  and  _655
REMARK  278  A    between atoms: _655  and  _656
REMARK  279  A    between atoms: _659  and  _661
REMARK  280  A    between atoms: _661  and  _662
REMARK  281  A    between atoms: _661  and  _664
REMARK  282  A    between atoms: _664  and  _665
REMARK  283  A    between atoms: _665  and  _666
REMARK  284  A    between atoms: _666  and  _667
REMARK  285  A    between atoms: _676  and  _678
REMARK  286  A    between atoms: _678  and  _679
REMARK  287  A    between atoms: _678  and  _681
REMARK  288  A    between atoms: _681  and  _682
REMARK  289  A    between atoms: _682  and  _683
REMARK  290  A    between atoms: _688  and  _690
REMARK  291  A    between atoms: _690  and  _691
REMARK  292  A    between atoms: _690  and  _693
REMARK  293  A    between atoms: _696  and  _698
REMARK  294  A    between atoms: _698  and  _699
REMARK  295  A    between atoms: _698  and  _701
REMARK  296  A    between atoms: _701  and  _702
REMARK                            x       y       z     vdW  Elec       q    Type
REMARK                         _______ _______ _______ _____ _____    ______ ____
ROOT
ATOM      1  CA  ARG A   2      -0.352  -5.447   2.580  0.00  0.00    +0.137 C 
ENDROOT
BRANCH   1   4
ATOM      2  C   VAL A   1       1.243  -5.948   4.331  0.00  0.00    +0.238 C 
ATOM      3  O   VAL A   1       0.420  -5.702   5.215  0.00  0.00    -0.274 OA
ATOM      4  N   ARG A   2       0.963  -5.853   3.040  0.00  0.00    -0.298 N 
ATOM      5  H   ARG A   2       1.701  -6.074   2.341  0.00  0.00    +0.150 HD
BRANCH   2   6
ATOM      6  CA  VAL A   1       2.665  -6.392   4.672  0.00  0.00    +0.145 C 
BRANCH   6   7
ATOM      7  CB  VAL A   1       3.626  -5.189   4.513  0.00  0.00    +0.025 C 
ATOM      8  CG2 VAL A   1       3.088  -3.980   5.259  0.00  0.00    +0.002 C 
ATOM      9  CG1 VAL A   1       5.008  -5.564   5.042  0.00  0.00    +0.002 C 
ENDBRANCH   6   7
BRANCH   6  10
ATOM     10  N   VAL A   1       3.088  -7.505   3.822  0.00  0.00    -0.238 NA
ATOM     11  H   VAL A   1       3.899  -7.375   3.184  0.00  0.00    +0.142 HD
ENDBRANCH   6  10
ENDBRANCH   2   6
ENDBRANCH   1   4
BRANCH   1  12
ATOM     12  C   ARG A   2      -1.398  -6.469   3.023  0.00  0.00    +0.227 C 
ATOM     13  O   ARG A   2      -2.484  -6.107   3.455  0.00  0.00    -0.286 OA
ENDBRANCH   1  12
BRANCH   1  14
ATOM     14  CB  ARG A   2      -0.344  -5.321   1.064  0.00  0.00    +0.031 C 
BRANCH  14  15
ATOM     15  CG  ARG A   2      -1.654  -4.841   0.480  0.00  0.00    +0.045 C 
BRANCH  15  16
ATOM     16  CD  ARG A   2      -1.489  -4.533  -0.991  0.00  0.00    +0.174 C 
BRANCH  16  17
ATOM     17  NE  ARG A   2      -1.194  -5.729  -1.761  0.00  0.00    -0.265 N 
ATOM     18  HE  ARG A   2      -1.145  -6.637  -1.256  0.00  0.00    +0.259 HD
ATOM     19  CZ  ARG A   2      -0.984  -5.730  -3.069  0.00  0.00    +0.342 C 
ATOM     20  NH2 ARG A   2      -0.729  -6.870  -3.697  0.00  0.00    -0.292 N 
ATOM     21 HH21 ARG A   2      -0.694  -7.762  -3.163  0.00  0.00    +0.255 HD
ATOM     22 HH22 ARG A   2      -0.564  -6.872  -4.724  0.00  0.00    +0.255 HD
ATOM     23  NH1 ARG A   2      -1.036  -4.589  -3.746  0.00  0.00    -0.292 N 
ATOM     24 HH11 ARG A   2      -1.241  -3.699  -3.249  0.00  0.00    +0.255 HD
ATOM     25 HH12 ARG A   2      -0.872  -4.586  -4.773  0.00  0.00    +0.255 HD
ENDBRANCH  16  17
ENDBRANCH  15  16
ENDBRANCH  14  15
ENDBRANCH   1  14
TORSDOF 9
REMARK  Name = ../refined-set-2016/3v2p/3v2p_pocket.pdb
REMARK  296 active torsions:
REMARK  status: ('A' for Active; 'I' for Inactive)
REMARK    1  A    between atoms: _1  and  _3
REMARK    2  A    between atoms: _3  and  _4
REMARK    3  A    between atoms: _3  and  _6
REMARK    4  A    between atoms: _6  and  _7
REMARK    5  A    between atoms: _7  and  _8
REMARK    6  A    between atoms: _10  and  _12
REMARK    7  A    between atoms: _12  and  _13
REMARK    8  A    between atoms: _12  and  _15
REMARK    9  A    between atoms: _15  and  _16
REMARK   10  A    between atoms: _16  and  _17
REMARK   11  A    between atoms: _20  and  _22
REMARK   12  A    between atoms: _22  and  _23
REMARK   13  A    between atoms: _22  and  _25
REMARK   14  A    between atoms: _25  and  _26
REMARK   15  A    between atoms: _29  and  _31
REMARK   16  A    between atoms: _31  and  _32
REMARK   17  A    between atoms: _31  and  _34
REMARK   18  A    between atoms: _34  and  _35
REMARK   19  A    between atoms: _38  and  _40
REMARK   20  A    between atoms: _40  and  _41
REMARK   21  A    between atoms: _40  and  _43
REMARK   22  A    between atoms: _43  and  _44
REMARK   23  A    between atoms: _49  and  _51
REMARK   24  A    between atoms: _51  and  _52
REMARK   25  A    between atoms: _55  and  _57
REMARK   26  A    between atoms: _57  and  _58
REMARK   27  A    between atoms: _57  and  _60
REMARK   28  A    between atoms: _60  and  _61
REMARK   29  A    between atoms: _64  and  _66
REMARK   30  A    between atoms: _66  and  _67
REMARK   31  A    between atoms: _66  and  _69
REMARK   32  A    between atoms: _72  and  _74
REMARK   33  A    between atoms: _74  and  _75
REMARK   34  A    between atoms: _74  and  _77
REMARK   35  A    between atoms: _77  and  _78
REMARK   36  A    between atoms: _78  and  _79
REMARK   37  A    between atoms: _79  and  _80
REMARK   38  A    between atoms: _89  and  _91
REMARK   39  A    between atoms: _91  and  _92
REMARK   40  A    between atoms: _91  and  _94
REMARK   41  A    between atoms: _94  and  _95
REMARK   42  A    between atoms: _98  and  _100
REMARK   43  A    between atoms: _100  and  _101
REMARK   44  A    between atoms: _100  and  _103
REMARK   45  A    between atoms: _103  and  _104
REMARK   46  A    between atoms: _107  and  _109
REMARK   47  A    between atoms: _109  and  _110
REMARK   48  A    between atoms: _109  and  _112
REMARK   49  A    between atoms: _112  and  _113
REMARK   50  A    between atoms: _113  and  _114
REMARK   51  A    between atoms: _119  and  _121
REMARK   52  A    between atoms: _121  and  _122
REMARK   53  A    between atoms: _121  and  _124
REMARK   54  A    between atoms: _127  and  _129
REMARK   55  A    between atoms: _129  and  _130
REMARK   56  A    between atoms: _129  and  _132
REMARK   57  A    between atoms: _132  and  _133
REMARK   58  A    between atoms: _136  and  _138
REMARK   59  A    between atoms: _138  and  _139
REMARK   60  A    between atoms: _138  and  _141
REMARK   61  A    between atoms: _141  and  _142
REMARK   62  A    between atoms: _142  and  _143
REMARK   63  A    between atoms: _145  and  _147
REMARK   64  A    between atoms: _147  and  _148
REMARK   65  A    between atoms: _147  and  _150
REMARK   66  A    between atoms: _150  and  _151
REMARK   67  A    between atoms: _151  and  _152
REMARK   68  A    between atoms: _155  and  _157
REMARK   69  A    between atoms: _157  and  _158
REMARK   70  A    between atoms: _157  and  _160
REMARK   71  A    between atoms: _160  and  _161
REMARK   72  A    between atoms: _164  and  _166
REMARK   73  A    between atoms: _166  and  _167
REMARK   74  A    between atoms: _166  and  _169
REMARK   75  A    between atoms: _169  and  _170
REMARK   76  A    between atoms: _173  and  _175
REMARK   77  A    between atoms: _175  and  _176
REMARK   78  A    between atoms: _175  and  _178
REMARK   79  A    between atoms: _178  and  _179
REMARK   80  A    between atoms: _184  and  _186
REMARK   81  A    between atoms: _186  and  _187
REMARK   82  A    between atoms: _190  and  _192
REMARK   83  A    between atoms: _192  and  _193
REMARK   84  A    between atoms: _192  and  _195
REMARK   85  A    between atoms: _195  and  _196
REMARK   86  A    between atoms: _199  and  _201
REMARK   87  A    between atoms: _201  and  _202
REMARK   88  A    between atoms: _201  and  _204
REMARK   89  A    between atoms: _207  and  _209
REMARK   90  A    between atoms: _209  and  _210
REMARK   91  A    between atoms: _209  and  _212
REMARK   92  A    between atoms: _212  and  _213
REMARK   93  A    between atoms: _213  and  _214
REMARK   94  A    between atoms: _214  and  _215
REMARK   95  A    between atoms: _224  and  _226
REMARK   96  A    between atoms: _226  and  _227
REMARK   97  A    between atoms: _226  and  _229
REMARK   98  A    between atoms: _229  and  _230
REMARK   99  A    between atoms: _233  and  _235
REMARK  100  A    between atoms: _235  and  _236
REMARK  101  A    between atoms: _235  and  _238
REMARK  102  A    between atoms: _238  and  _239
REMARK  103  A    between atoms: _242  and  _244
REMARK  104  A    between atoms: _244  and  _245
REMARK  105  A    between atoms: _244  and  _247
REMARK  106  A    between atoms: _247  and  _248
REMARK  107  A    between atoms: _248  and  _249
REMARK  108  A    between atoms: _254  and  _256
REMARK  109  A    between atoms: _256  and  _257
REMARK  110  A    between atoms: _256  and  _259
REMARK  111  A    between atoms: _262  and  _264
REMARK  112  A    between atoms: _264  and  _265
REMARK  113  A    between atoms: _264  and  _267
REMARK  114  A    between atoms: _267  and  _268
REMARK  115  A    between atoms: _271  and  _273
REMARK  116  A    between atoms: _273  and  _274
REMARK  117  A    between atoms: _273  and  _276
REMARK  118  A    between atoms: _276  and  _277
REMARK  119  A    between atoms: _277  and  _278
REMARK  120  A    between atoms: _280  and  _282
REMARK  121  A    between atoms: _282  and  _283
REMARK  122  A    between atoms: _282  and  _285
REMARK  123  A    between atoms: _285  and  _286
REMARK  124  A    between atoms: _286  and  _287
REMARK  125  A    between atoms: _290  and  _292
REMARK  126  A    between atoms: _292  and  _293
REMARK  127  A    between atoms: _292  and  _295
REMARK  128  A    between atoms: _295  and  _296
REMARK  129  A    between atoms: _299  and  _301
REMARK  130  A    between atoms: _301  and  _302
REMARK  131  A    between atoms: _301  and  _304
REMARK  132  A    between atoms: _304  and  _305
REMARK  133  A    between atoms: _308  and  _310
REMARK  134  A    between atoms: _310  and  _311
REMARK  135  A    between atoms: _310  and  _313
REMARK  136  A    between atoms: _313  and  _314
REMARK  137  A    between atoms: _319  and  _321
REMARK  138  A    between atoms: _321  and  _322
REMARK  139  A    between atoms: _325  and  _327
REMARK  140  A    between atoms: _327  and  _328
REMARK  141  A    between atoms: _327  and  _330
REMARK  142  A    between atoms: _330  and  _331
REMARK  143  A    between atoms: _334  and  _336
REMARK  144  A    between atoms: _336  and  _337
REMARK  145  A    between atoms: _336  and  _339
REMARK  146  A    between atoms: _342  and  _344
REMARK  147  A    between atoms: _344  and  _345
REMARK  148  A    between atoms: _344  and  _347
REMARK  149  A    between atoms: _347  and  _348
REMARK  150  A    between atoms: _348  and  _349
REMARK  151  A    between atoms: _349  and  _350
REMARK  152  A    between atoms: _359  and  _361
REMARK  153  A    between atoms: _361  and  _362
REMARK  154  A    between atoms: _361  and  _364
REMARK  155  A    between atoms: _364  and  _365
REMARK  156  A    between atoms: _368  and  _370
REMARK  157  A    between atoms: _370  and  _371
REMARK  158  A    between atoms: _370  and  _373
REMARK  159  A    between atoms: _373  and  _374
REMARK  160  A    between atoms: _377  and  _379
REMARK  161  A    between atoms: _379  and  _380
REMARK  162  A    between atoms: _379  and  _382
REMARK  163  A    between atoms: _382  and  _383
REMARK  164  A    between atoms: _383  and  _384
REMARK  165  A    between atoms: _389  and  _391
REMARK  166  A    between atoms: _391  and  _392
REMARK  167  A    between atoms: _391  and  _394
REMARK  168  A    between atoms: _397  and  _399
REMARK  169  A    between atoms: _399  and  _400
REMARK  170  A    between atoms: _399  and  _402
REMARK  171  A    between atoms: _402  and  _403
REMARK  172  A    between atoms: _406  and  _408
REMARK  173  A    between atoms: _408  and  _409
REMARK  174  A    between atoms: _408  and  _411
REMARK  175  A    between atoms: _411  and  _412
REMARK  176  A    between atoms: _412  and  _413
REMARK  177  A    between atoms: _415  and  _417
REMARK  178  A    between atoms: _417  and  _418
REMARK  179  A    between atoms: _417  and  _420
REMARK  180  A    between atoms: _420  and  _421
REMARK  181  A    between atoms: _421  and  _422
REMARK  182  A    between atoms: _425  and  _427
REMARK  183  A    between atoms: _427  and  _428
REMARK  184  A    between atoms: _427  and  _430
REMARK  185  A    between atoms: _430  and  _431
REMARK  186  A    between atoms: _434  and  _436
REMARK  187  A    between atoms: _436  and  _437
REMARK  188  A    between atoms: _436  and  _439
REMARK  189  A    between atoms: _439  and  _440
REMARK  190  A    between atoms: _443  and  _445
REMARK  191  A    between atoms: _445  and  _446
REMARK  192  A    between atoms: _445  and  _448
REMARK  193  A    between atoms: _448  and  _449
REMARK  194  A    between atoms: _454  and  _456
REMARK  195  A    between atoms: _456  and  _457
REMARK  196  A    between atoms: _460  and  _462
REMARK  197  A    between atoms: _462  and  _463
REMARK  198  A    between atoms: _462  and  _465
REMARK  199  A    between atoms: _465  and  _466
REMARK  200  A    between atoms: _469  and  _471
REMARK  201  A    between atoms: _471  and  _472
REMARK  202  A    between atoms: _471  and  _474
REMARK  203  A    between atoms: _477  and  _479
REMARK  204  A    between atoms: _479  and  _480
REMARK  205  A    between atoms: _479  and  _482
REMARK  206  A    between atoms: _482  and  _483
REMARK  207  A    between atoms: _483  and  _484
REMARK  208  A    between atoms: _484  and  _485
REMARK  209  A    between atoms: _494  and  _496
REMARK  210  A    between atoms: _496  and  _497
REMARK  211  A    between atoms: _496  and  _499
REMARK  212  A    between atoms: _499  and  _500
REMARK  213  A    between atoms: _503  and  _505
REMARK  214  A    between atoms: _505  and  _506
REMARK  215  A    between atoms: _505  and  _508
REMARK  216  A    between atoms: _508  and  _509
REMARK  217  A    between atoms: _512  and  _514
REMARK  218  A    between atoms: _514  and  _515
REMARK  219  A    between atoms: _514  and  _517
REMARK  220  A    between atoms: _517  and  _518
REMARK  221  A    between atoms: _518  and  _519
REMARK  222  A    between atoms: _524  and  _526
REMARK  223  A    between atoms: _526  and  _527
REMARK  224  A    between atoms: _526  and  _529
REMARK  225  A    between atoms: _532  and  _534
REMARK  226  A    between atoms: _534  and  _535
REMARK  227  A    between atoms: _534  and  _537
REMARK  228  A    between atoms: _537  and  _538
REMARK  229  A    between atoms: _541  and  _543
REMARK  230  A    between atoms: _543  and  _544
REMARK  231  A    between atoms: _543  and  _546
REMARK  232  A    between atoms: _546  and  _547
REMARK  233  A    between atoms: _547  and  _548
REMARK  234  A    between atoms: _550  and  _552
REMARK  235  A    between atoms: _552  and  _553
REMARK  236  A    between atoms: _552  and  _555
REMARK  237  A    between atoms: _555  and  _556
REMARK  238  A    between atoms: _556  and  _557
REMARK  239  A    between atoms: _560  and  _562
REMARK  240  A    between atoms: _562  and  _563
REMARK  241  A    between atoms: _562  and  _565
REMARK  242  A    between atoms: _565  and  _566
REMARK  243  A    between atoms: _569  and  _571
REMARK  244  A    between atoms: _571  and  _572
REMARK  245  A    between atoms: _571  and  _574
REMARK  246  A    between atoms: _574  and  _575
REMARK  247  A    between atoms: _575  and  _576
REMARK  248  A    between atoms: _581  and  _583
REMARK  249  A    between atoms: _583  and  _584
REMARK  250  A    between atoms: _583  and  _586
REMARK  251  A    between atoms: _586  and  _587
REMARK  252  A    between atoms: _590  and  _592
REMARK  253  A    between atoms: _592  and  _593
REMARK  254  A    between atoms: _592  and  _595
REMARK  255  A    between atoms: _595  and  _596
REMARK  256  A    between atoms: _601  and  _603
REMARK  257  A    between atoms: _603  and  _604
REMARK  258  A    between atoms: _607  and  _609
REMARK  259  A    between atoms: _609  and  _610
REMARK  260  A    between atoms: _609  and  _612
REMARK  261  A    between atoms: _612  and  _613
REMARK  262  A    between atoms: _616  and  _618
REMARK  263  A    between atoms: _618  and  _619
REMARK  264  A    between atoms: _618  and  _621
REMARK  265  A    between atoms: _624  and  _626
REMARK  266  A    between atoms: _626  and  _627
REMARK  267  A    between atoms: _626  and  _629
REMARK  268  A    between atoms: _629  and  _630
REMARK  269  A    between atoms: _630  and  _631
REMARK  270  A    between atoms: _631  and  _632
REMARK  271  A    between atoms: _641  and  _643
REMARK  272  A    between atoms: _643  and  _644
REMARK  273  A    between atoms: _643  and  _646
REMARK  274  A    between atoms: _646  and  _647
REMARK  275  A    between atoms: _650  and  _652
REMARK  276  A    between atoms: _652  and  _653
REMARK  277  A    between atoms: _652  and  _655
REMARK  278  A    between atoms: _655  and  _656
REMARK  279  A    between atoms: _659  and  _661
REMARK  280  A    between atoms: _661  and  _662
REMARK  281  A    between atoms: _661  and  _664
REMARK  282  A    between atoms: _664  and  _665
REMARK  283  A    between atoms: _665  and  _666
REMARK  284  A    between atoms: _666  and  _667
REMARK  285  A    between atoms: _676  and  _678
REMARK  286  A    between atoms: _678  and  _679
REMARK  287  A    between atoms: _678  and  _681
REMARK  288  A    between atoms: _681  and  _682
REMARK  289  A    between atoms: _682  and  _683
REMARK  290  A    between atoms: _688  and  _690
REMARK  291  A    between atoms: _690  and  _691
REMARK  292  A    between atoms: _690  and  _693
REMARK  293  A    between atoms: _696  and  _698
REMARK  294  A    between atoms: _698  and  _699
REMARK  295  A    between atoms: _698  and  _701
REMARK  296  A    between atoms: _701  and  _702
REMARK                            x       y       z     vdW  Elec       q    Type
REMARK                         _______ _______ _______ _____ _____    ______ ____
ROOT
ATOM      1  C   LEU A   1      -2.228  -7.171   7.414  0.00  0.00    +0.238 C 
ATOM      2  O   LEU A   1      -3.076  -7.197   8.306  0.00  0.00    -0.274 OA
ATOM      3  N   LEU A   2      -1.970  -6.078   6.703  0.00  0.00    -0.298 N 
ATOM      4  H   LEU A   2      -1.263  -6.114   5.941  0.00  0.00    +0.150 HD
ENDROOT
BRANCH   1   5
ATOM      5  CA  LEU A   1      -1.429  -8.425   7.062  0.00  0.00    +0.145 C 
BRANCH   5   6
ATOM      6  N   LEU A   1      -1.244  -8.536   5.620  0.00  0.00    -0.238 NA
ATOM      7  H   LEU A   1      -0.287  -8.458   5.220  0.00  0.00    +0.142 HD
ENDBRANCH   5   6
BRANCH   5   8
ATOM      8  CB  LEU A   1      -0.066  -8.383   7.765  0.00  0.00    +0.026 C 
BRANCH   8   9
ATOM      9  CG  LEU A   1       0.743  -9.685   7.722  0.00  0.00    +0.002 C 
ATOM     10  CD2 LEU A   1       0.082 -10.729   8.622  0.00  0.00    +0.000 C 
ATOM     11  CD1 LEU A   1       2.174  -9.421   8.161  0.00  0.00    +0.000 C 
ENDBRANCH   8   9
ENDBRANCH   5   8
ENDBRANCH   1   5
BRANCH   3  12
ATOM     12  CA  LEU A   2      -2.669  -4.829   6.982  0.00  0.00    +0.137 C 
BRANCH  12  13
ATOM     13  C   LEU A   2      -4.155  -4.930   6.647  0.00  0.00    +0.227 C 
ATOM     14  O   LEU A   2      -5.000  -4.418   7.383  0.00  0.00    -0.286 OA
ENDBRANCH  12  13
BRANCH  12  15
ATOM     15  CB  LEU A   2      -2.043  -3.674   6.192  0.00  0.00    +0.028 C 
BRANCH  15  16
ATOM     16  CG  LEU A   2      -1.691  -2.378   6.937  0.00  0.00    +0.002 C 
ATOM     17  CD2 LEU A   2      -2.826  -1.962   7.852  0.00  0.00    +0.000 C 
ATOM     18  CD1 LEU A   2      -1.413  -1.273   5.924  0.00  0.00    +0.000 C 
ENDBRANCH  15  16
ENDBRANCH  12  15
ENDBRANCH   3  12
TORSDOF 8
REMARK  Name = ../refined-set-2016/3v2p/3v2p_pocket.pdb
REMARK  296 active torsions:
REMARK  status: ('A' for Active; 'I' for Inactive)
REMARK    1  A    between atoms: _1  and  _3
REMARK    2  A    between atoms: _3  and  _4
REMARK    3  A    between atoms: _3  and  _6
REMARK    4  A    between atoms: _6  and  _7
REMARK    5  A    between atoms: _7  and  _8
REMARK    6  A    between atoms: _10  and  _12
REMARK    7  A    between atoms: _12  and  _13
REMARK    8  A    between atoms: _12  and  _15
REMARK    9  A    between atoms: _15  and  _16
REMARK   10  A    between atoms: _16  and  _17
REMARK   11  A    between atoms: _20  and  _22
REMARK   12  A    between atoms: _22  and  _23
REMARK   13  A    between atoms: _22  and  _25
REMARK   14  A    between atoms: _25  and  _26
REMARK   15  A    between atoms: _29  and  _31
REMARK   16  A    between atoms: _31  and  _32
REMARK   17  A    between atoms: _31  and  _34
REMARK   18  A    between atoms: _34  and  _35
REMARK   19  A    between atoms: _38  and  _40
REMARK   20  A    between atoms: _40  and  _41
REMARK   21  A    between atoms: _40  and  _43
REMARK   22  A    between atoms: _43  and  _44
REMARK   23  A    between atoms: _49  and  _51
REMARK   24  A    between atoms: _51  and  _52
REMARK   25  A    between atoms: _55  and  _57
REMARK   26  A    between atoms: _57  and  _58
REMARK   27  A    between atoms: _57  and  _60
REMARK   28  A    between atoms: _60  and  _61
REMARK   29  A    between atoms: _64  and  _66
REMARK   30  A    between atoms: _66  and  _67
REMARK   31  A    between atoms: _66  and  _69
REMARK   32  A    between atoms: _72  and  _74
REMARK   33  A    between atoms: _74  and  _75
REMARK   34  A    between atoms: _74  and  _77
REMARK   35  A    between atoms: _77  and  _78
REMARK   36  A    between atoms: _78  and  _79
REMARK   37  A    between atoms: _79  and  _80
REMARK   38  A    between atoms: _89  and  _91
REMARK   39  A    between atoms: _91  and  _92
REMARK   40  A    between atoms: _91  and  _94
REMARK   41  A    between atoms: _94  and  _95
REMARK   42  A    between atoms: _98  and  _100
REMARK   43  A    between atoms: _100  and  _101
REMARK   44  A    between atoms: _100  and  _103
REMARK   45  A    between atoms: _103  and  _104
REMARK   46  A    between atoms: _107  and  _109
REMARK   47  A    between atoms: _109  and  _110
REMARK   48  A    between atoms: _109  and  _112
REMARK   49  A    between atoms: _112  and  _113
REMARK   50  A    between atoms: _113  and  _114
REMARK   51  A    between atoms: _119  and  _121
REMARK   52  A    between atoms: _121  and  _122
REMARK   53  A    between atoms: _121  and  _124
REMARK   54  A    between atoms: _127  and  _129
REMARK   55  A    between atoms: _129  and  _130
REMARK   56  A    between atoms: _129  and  _132
REMARK   57  A    between atoms: _132  and  _133
REMARK   58  A    between atoms: _136  and  _138
REMARK   59  A    between atoms: _138  and  _139
REMARK   60  A    between atoms: _138  and  _141
REMARK   61  A    between atoms: _141  and  _142
REMARK   62  A    between atoms: _142  and  _143
REMARK   63  A    between atoms: _145  and  _147
REMARK   64  A    between atoms: _147  and  _148
REMARK   65  A    between atoms: _147  and  _150
REMARK   66  A    between atoms: _150  and  _151
REMARK   67  A    between atoms: _151  and  _152
REMARK   68  A    between atoms: _155  and  _157
REMARK   69  A    between atoms: _157  and  _158
REMARK   70  A    between atoms: _157  and  _160
REMARK   71  A    between atoms: _160  and  _161
REMARK   72  A    between atoms: _164  and  _166
REMARK   73  A    between atoms: _166  and  _167
REMARK   74  A    between atoms: _166  and  _169
REMARK   75  A    between atoms: _169  and  _170
REMARK   76  A    between atoms: _173  and  _175
REMARK   77  A    between atoms: _175  and  _176
REMARK   78  A    between atoms: _175  and  _178
REMARK   79  A    between atoms: _178  and  _179
REMARK   80  A    between atoms: _184  and  _186
REMARK   81  A    between atoms: _186  and  _187
REMARK   82  A    between atoms: _190  and  _192
REMARK   83  A    between atoms: _192  and  _193
REMARK   84  A    between atoms: _192  and  _195
REMARK   85  A    between atoms: _195  and  _196
REMARK   86  A    between atoms: _199  and  _201
REMARK   87  A    between atoms: _201  and  _202
REMARK   88  A    between atoms: _201  and  _204
REMARK   89  A    between atoms: _207  and  _209
REMARK   90  A    between atoms: _209  and  _210
REMARK   91  A    between atoms: _209  and  _212
REMARK   92  A    between atoms: _212  and  _213
REMARK   93  A    between atoms: _213  and  _214
REMARK   94  A    between atoms: _214  and  _215
REMARK   95  A    between atoms: _224  and  _226
REMARK   96  A    between atoms: _226  and  _227
REMARK   97  A    between atoms: _226  and  _229
REMARK   98  A    between atoms: _229  and  _230
REMARK   99  A    between atoms: _233  and  _235
REMARK  100  A    between atoms: _235  and  _236
REMARK  101  A    between atoms: _235  and  _238
REMARK  102  A    between atoms: _238  and  _239
REMARK  103  A    between atoms: _242  and  _244
REMARK  104  A    between atoms: _244  and  _245
REMARK  105  A    between atoms: _244  and  _247
REMARK  106  A    between atoms: _247  and  _248
REMARK  107  A    between atoms: _248  and  _249
REMARK  108  A    between atoms: _254  and  _256
REMARK  109  A    between atoms: _256  and  _257
REMARK  110  A    between atoms: _256  and  _259
REMARK  111  A    between atoms: _262  and  _264
REMARK  112  A    between atoms: _264  and  _265
REMARK  113  A    between atoms: _264  and  _267
REMARK  114  A    between atoms: _267  and  _268
REMARK  115  A    between atoms: _271  and  _273
REMARK  116  A    between atoms: _273  and  _274
REMARK  117  A    between atoms: _273  and  _276
REMARK  118  A    between atoms: _276  and  _277
REMARK  119  A    between atoms: _277  and  _278
REMARK  120  A    between atoms: _280  and  _282
REMARK  121  A    between atoms: _282  and  _283
REMARK  122  A    between atoms: _282  and  _285
REMARK  123  A    between atoms: _285  and  _286
REMARK  124  A    between atoms: _286  and  _287
REMARK  125  A    between atoms: _290  and  _292
REMARK  126  A    between atoms: _292  and  _293
REMARK  127  A    between atoms: _292  and  _295
REMARK  128  A    between atoms: _295  and  _296
REMARK  129  A    between atoms: _299  and  _301
REMARK  130  A    between atoms: _301  and  _302
REMARK  131  A    between atoms: _301  and  _304
REMARK  132  A    between atoms: _304  and  _305
REMARK  133  A    between atoms: _308  and  _310
REMARK  134  A    between atoms: _310  and  _311
REMARK  135  A    between atoms: _310  and  _313
REMARK  136  A    between atoms: _313  and  _314
REMARK  137  A    between atoms: _319  and  _321
REMARK  138  A    between atoms: _321  and  _322
REMARK  139  A    between atoms: _325  and  _327
REMARK  140  A    between atoms: _327  and  _328
REMARK  141  A    between atoms: _327  and  _330
REMARK  142  A    between atoms: _330  and  _331
REMARK  143  A    between atoms: _334  and  _336
REMARK  144  A    between atoms: _336  and  _337
REMARK  145  A    between atoms: _336  and  _339
REMARK  146  A    between atoms: _342  and  _344
REMARK  147  A    between atoms: _344  and  _345
REMARK  148  A    between atoms: _344  and  _347
REMARK  149  A    between atoms: _347  and  _348
REMARK  150  A    between atoms: _348  and  _349
REMARK  151  A    between atoms: _349  and  _350
REMARK  152  A    between atoms: _359  and  _361
REMARK  153  A    between atoms: _361  and  _362
REMARK  154  A    between atoms: _361  and  _364
REMARK  155  A    between atoms: _364  and  _365
REMARK  156  A    between atoms: _368  and  _370
REMARK  157  A    between atoms: _370  and  _371
REMARK  158  A    between atoms: _370  and  _373
REMARK  159  A    between atoms: _373  and  _374
REMARK  160  A    between atoms: _377  and  _379
REMARK  161  A    between atoms: _379  and  _380
REMARK  162  A    between atoms: _379  and  _382
REMARK  163  A    between atoms: _382  and  _383
REMARK  164  A    between atoms: _383  and  _384
REMARK  165  A    between atoms: _389  and  _391
REMARK  166  A    between atoms: _391  and  _392
REMARK  167  A    between atoms: _391  and  _394
REMARK  168  A    between atoms: _397  and  _399
REMARK  169  A    between atoms: _399  and  _400
REMARK  170  A    between atoms: _399  and  _402
REMARK  171  A    between atoms: _402  and  _403
REMARK  172  A    between atoms: _406  and  _408
REMARK  173  A    between atoms: _408  and  _409
REMARK  174  A    between atoms: _408  and  _411
REMARK  175  A    between atoms: _411  and  _412
REMARK  176  A    between atoms: _412  and  _413
REMARK  177  A    between atoms: _415  and  _417
REMARK  178  A    between atoms: _417  and  _418
REMARK  179  A    between atoms: _417  and  _420
REMARK  180  A    between atoms: _420  and  _421
REMARK  181  A    between atoms: _421  and  _422
REMARK  182  A    between atoms: _425  and  _427
REMARK  183  A    between atoms: _427  and  _428
REMARK  184  A    between atoms: _427  and  _430
REMARK  185  A    between atoms: _430  and  _431
REMARK  186  A    between atoms: _434  and  _436
REMARK  187  A    between atoms: _436  and  _437
REMARK  188  A    between atoms: _436  and  _439
REMARK  189  A    between atoms: _439  and  _440
REMARK  190  A    between atoms: _443  and  _445
REMARK  191  A    between atoms: _445  and  _446
REMARK  192  A    between atoms: _445  and  _448
REMARK  193  A    between atoms: _448  and  _449
REMARK  194  A    between atoms: _454  and  _456
REMARK  195  A    between atoms: _456  and  _457
REMARK  196  A    between atoms: _460  and  _462
REMARK  197  A    between atoms: _462  and  _463
REMARK  198  A    between atoms: _462  and  _465
REMARK  199  A    between atoms: _465  and  _466
REMARK  200  A    between atoms: _469  and  _471
REMARK  201  A    between atoms: _471  and  _472
REMARK  202  A    between atoms: _471  and  _474
REMARK  203  A    between atoms: _477  and  _479
REMARK  204  A    between atoms: _479  and  _480
REMARK  205  A    between atoms: _479  and  _482
REMARK  206  A    between atoms: _482  and  _483
REMARK  207  A    between atoms: _483  and  _484
REMARK  208  A    between atoms: _484  and  _485
REMARK  209  A    between atoms: _494  and  _496
REMARK  210  A    between atoms: _496  and  _497
REMARK  211  A    between atoms: _496  and  _499
REMARK  212  A    between atoms: _499  and  _500
REMARK  213  A    between atoms: _503  and  _505
REMARK  214  A    between atoms: _505  and  _506
REMARK  215  A    between atoms: _505  and  _508
REMARK  216  A    between atoms: _508  and  _509
REMARK  217  A    between atoms: _512  and  _514
REMARK  218  A    between atoms: _514  and  _515
REMARK  219  A    between atoms: _514  and  _517
REMARK  220  A    between atoms: _517  and  _518
REMARK  221  A    between atoms: _518  and  _519
REMARK  222  A    between atoms: _524  and  _526
REMARK  223  A    between atoms: _526  and  _527
REMARK  224  A    between atoms: _526  and  _529
REMARK  225  A    between atoms: _532  and  _534
REMARK  226  A    between atoms: _534  and  _535
REMARK  227  A    between atoms: _534  and  _537
REMARK  228  A    between atoms: _537  and  _538
REMARK  229  A    between atoms: _541  and  _543
REMARK  230  A    between atoms: _543  and  _544
REMARK  231  A    between atoms: _543  and  _546
REMARK  232  A    between atoms: _546  and  _547
REMARK  233  A    between atoms: _547  and  _548
REMARK  234  A    between atoms: _550  and  _552
REMARK  235  A    between atoms: _552  and  _553
REMARK  236  A    between atoms: _552  and  _555
REMARK  237  A    between atoms: _555  and  _556
REMARK  238  A    between atoms: _556  and  _557
REMARK  239  A    between atoms: _560  and  _562
REMARK  240  A    between atoms: _562  and  _563
REMARK  241  A    between atoms: _562  and  _565
REMARK  242  A    between atoms: _565  and  _566
REMARK  243  A    between atoms: _569  and  _571
REMARK  244  A    between atoms: _571  and  _572
REMARK  245  A    between atoms: _571  and  _574
REMARK  246  A    between atoms: _574  and  _575
REMARK  247  A    between atoms: _575  and  _576
REMARK  248  A    between atoms: _581  and  _583
REMARK  249  A    between atoms: _583  and  _584
REMARK  250  A    between atoms: _583  and  _586
REMARK  251  A    between atoms: _586  and  _587
REMARK  252  A    between atoms: _590  and  _592
REMARK  253  A    between atoms: _592  and  _593
REMARK  254  A    between atoms: _592  and  _595
REMARK  255  A    between atoms: _595  and  _596
REMARK  256  A    between atoms: _601  and  _603
REMARK  257  A    between atoms: _603  and  _604
REMARK  258  A    between atoms: _607  and  _609
REMARK  259  A    between atoms: _609  and  _610
REMARK  260  A    between atoms: _609  and  _612
REMARK  261  A    between atoms: _612  and  _613
REMARK  262  A    between atoms: _616  and  _618
REMARK  263  A    between atoms: _618  and  _619
REMARK  264  A    between atoms: _618  and  _621
REMARK  265  A    between atoms: _624  and  _626
REMARK  266  A    between atoms: _626  and  _627
REMARK  267  A    between atoms: _626  and  _629
REMARK  268  A    between atoms: _629  and  _630
REMARK  269  A    between atoms: _630  and  _631
REMARK  270  A    between atoms: _631  and  _632
REMARK  271  A    between atoms: _641  and  _643
REMARK  272  A    between atoms: _643  and  _644
REMARK  273  A    between atoms: _643  and  _646
REMARK  274  A    between atoms: _646  and  _647
REMARK  275  A    between atoms: _650  and  _652
REMARK  276  A    between atoms: _652  and  _653
REMARK  277  A    between atoms: _652  and  _655
REMARK  278  A    between atoms: _655  and  _656
REMARK  279  A    between atoms: _659  and  _661
REMARK  280  A    between atoms: _661  and  _662
REMARK  281  A    between atoms: _661  and  _664
REMARK  282  A    between atoms: _664  and  _665
REMARK  283  A    between atoms: _665  and  _666
REMARK  284  A    between atoms: _666  and  _667
REMARK  285  A    between atoms: _676  and  _678
REMARK  286  A    between atoms: _678  and  _679
REMARK  287  A    between atoms: _678  and  _681
REMARK  288  A    between atoms: _681  and  _682
REMARK  289  A    between atoms: _682  and  _683
REMARK  290  A    between atoms: _688  and  _690
REMARK  291  A    between atoms: _690  and  _691
REMARK  292  A    between atoms: _690  and  _693
REMARK  293  A    between atoms: _696  and  _698
REMARK  294  A    between atoms: _698  and  _699
REMARK  295  A    between atoms: _698  and  _701
REMARK  296  A    between atoms: _701  and  _702
REMARK                            x       y       z     vdW  Elec       q    Type
REMARK                         _______ _______ _______ _____ _____    ______ ____
ROOT
ATOM      1  CA  GLN A   1      -5.712  -6.070  10.590  0.00  0.00    +0.145 C 
ENDROOT
BRANCH   1   2
ATOM      2  C   GLN A   1      -6.857  -5.063  10.560  0.00  0.00    +0.238 C 
ATOM      3  O   GLN A   1      -7.539  -4.863  11.563  0.00  0.00    -0.274 OA
ATOM      4  N   VAL A   2      -7.080  -4.432   9.411  0.00  0.00    -0.298 N 
ATOM      5  H   VAL A   2      -6.479  -4.630   8.586  0.00  0.00    +0.150 HD
BRANCH   4   6
ATOM      6  CA  VAL A   2      -8.164  -3.463   9.305  0.00  0.00    +0.137 C 
BRANCH   6   7
ATOM      7  CB  VAL A   2      -8.202  -2.815   7.906  0.00  0.00    +0.026 C 
ATOM      8  CG2 VAL A   2      -9.432  -1.955   7.770  0.00  0.00    +0.002 C 
ATOM      9  CG1 VAL A   2      -6.956  -1.959   7.696  0.00  0.00    +0.002 C 
ENDBRANCH   6   7
BRANCH   6  10
ATOM     10  C   VAL A   2      -9.500  -4.154   9.599  0.00  0.00    +0.227 C 
ATOM     11  O   VAL A   2     -10.383  -3.578  10.247  0.00  0.00    -0.286 OA
ENDBRANCH   6  10
ENDBRANCH   4   6
ENDBRANCH   1   2
BRANCH   1  12
ATOM     12  N   GLN A   1      -5.693  -6.868   9.372  0.00  0.00    -0.238 NA
ATOM     13  H   GLN A   1      -4.856  -6.840   8.755  0.00  0.00    +0.142 HD
ENDBRANCH   1  12
BRANCH   1  14
ATOM     14  CB  GLN A   1      -4.367  -5.355  10.770  0.00  0.00    +0.036 C 
BRANCH  14  15
ATOM     15  CG  GLN A   1      -4.261  -4.563  12.069  0.00  0.00    +0.087 C 
BRANCH  15  16
ATOM     16  CD  GLN A   1      -2.863  -4.038  12.309  0.00  0.00    +0.219 C 
ATOM     17  OE1 GLN A   1      -2.039  -4.696  12.947  0.00  0.00    -0.275 OA
ATOM     18  NE2 GLN A   1      -2.578  -2.857  11.771  0.00  0.00    -0.329 N 
ATOM     19 HE21 GLN A   1      -1.626  -2.452  11.880  0.00  0.00    +0.145 HD
ATOM     20 HE22 GLN A   1      -3.306  -2.338  11.241  0.00  0.00    +0.145 HD
ENDBRANCH  15  16
ENDBRANCH  14  15
ENDBRANCH   1  14
TORSDOF 8
REMARK  Name = ../refined-set-2016/3v2p/3v2p_pocket.pdb
REMARK  296 active torsions:
REMARK  status: ('A' for Active; 'I' for Inactive)
REMARK    1  A    between atoms: _1  and  _3
REMARK    2  A    between atoms: _3  and  _4
REMARK    3  A    between atoms: _3  and  _6
REMARK    4  A    between atoms: _6  and  _7
REMARK    5  A    between atoms: _7  and  _8
REMARK    6  A    between atoms: _10  and  _12
REMARK    7  A    between atoms: _12  and  _13
REMARK    8  A    between atoms: _12  and  _15
REMARK    9  A    between atoms: _15  and  _16
REMARK   10  A    between atoms: _16  and  _17
REMARK   11  A    between atoms: _20  and  _22
REMARK   12  A    between atoms: _22  and  _23
REMARK   13  A    between atoms: _22  and  _25
REMARK   14  A    between atoms: _25  and  _26
REMARK   15  A    between atoms: _29  and  _31
REMARK   16  A    between atoms: _31  and  _32
REMARK   17  A    between atoms: _31  and  _34
REMARK   18  A    between atoms: _34  and  _35
REMARK   19  A    between atoms: _38  and  _40
REMARK   20  A    between atoms: _40  and  _41
REMARK   21  A    between atoms: _40  and  _43
REMARK   22  A    between atoms: _43  and  _44
REMARK   23  A    between atoms: _49  and  _51
REMARK   24  A    between atoms: _51  and  _52
REMARK   25  A    between atoms: _55  and  _57
REMARK   26  A    between atoms: _57  and  _58
REMARK   27  A    between atoms: _57  and  _60
REMARK   28  A    between atoms: _60  and  _61
REMARK   29  A    between atoms: _64  and  _66
REMARK   30  A    between atoms: _66  and  _67
REMARK   31  A    between atoms: _66  and  _69
REMARK   32  A    between atoms: _72  and  _74
REMARK   33  A    between atoms: _74  and  _75
REMARK   34  A    between atoms: _74  and  _77
REMARK   35  A    between atoms: _77  and  _78
REMARK   36  A    between atoms: _78  and  _79
REMARK   37  A    between atoms: _79  and  _80
REMARK   38  A    between atoms: _89  and  _91
REMARK   39  A    between atoms: _91  and  _92
REMARK   40  A    between atoms: _91  and  _94
REMARK   41  A    between atoms: _94  and  _95
REMARK   42  A    between atoms: _98  and  _100
REMARK   43  A    between atoms: _100  and  _101
REMARK   44  A    between atoms: _100  and  _103
REMARK   45  A    between atoms: _103  and  _104
REMARK   46  A    between atoms: _107  and  _109
REMARK   47  A    between atoms: _109  and  _110
REMARK   48  A    between atoms: _109  and  _112
REMARK   49  A    between atoms: _112  and  _113
REMARK   50  A    between atoms: _113  and  _114
REMARK   51  A    between atoms: _119  and  _121
REMARK   52  A    between atoms: _121  and  _122
REMARK   53  A    between atoms: _121  and  _124
REMARK   54  A    between atoms: _127  and  _129
REMARK   55  A    between atoms: _129  and  _130
REMARK   56  A    between atoms: _129  and  _132
REMARK   57  A    between atoms: _132  and  _133
REMARK   58  A    between atoms: _136  and  _138
REMARK   59  A    between atoms: _138  and  _139
REMARK   60  A    between atoms: _138  and  _141
REMARK   61  A    between atoms: _141  and  _142
REMARK   62  A    between atoms: _142  and  _143
REMARK   63  A    between atoms: _145  and  _147
REMARK   64  A    between atoms: _147  and  _148
REMARK   65  A    between atoms: _147  and  _150
REMARK   66  A    between atoms: _150  and  _151
REMARK   67  A    between atoms: _151  and  _152
REMARK   68  A    between atoms: _155  and  _157
REMARK   69  A    between atoms: _157  and  _158
REMARK   70  A    between atoms: _157  and  _160
REMARK   71  A    between atoms: _160  and  _161
REMARK   72  A    between atoms: _164  and  _166
REMARK   73  A    between atoms: _166  and  _167
REMARK   74  A    between atoms: _166  and  _169
REMARK   75  A    between atoms: _169  and  _170
REMARK   76  A    between atoms: _173  and  _175
REMARK   77  A    between atoms: _175  and  _176
REMARK   78  A    between atoms: _175  and  _178
REMARK   79  A    between atoms: _178  and  _179
REMARK   80  A    between atoms: _184  and  _186
REMARK   81  A    between atoms: _186  and  _187
REMARK   82  A    between atoms: _190  and  _192
REMARK   83  A    between atoms: _192  and  _193
REMARK   84  A    between atoms: _192  and  _195
REMARK   85  A    between atoms: _195  and  _196
REMARK   86  A    between atoms: _199  and  _201
REMARK   87  A    between atoms: _201  and  _202
REMARK   88  A    between atoms: _201  and  _204
REMARK   89  A    between atoms: _207  and  _209
REMARK   90  A    between atoms: _209  and  _210
REMARK   91  A    between atoms: _209  and  _212
REMARK   92  A    between atoms: _212  and  _213
REMARK   93  A    between atoms: _213  and  _214
REMARK   94  A    between atoms: _214  and  _215
REMARK   95  A    between atoms: _224  and  _226
REMARK   96  A    between atoms: _226  and  _227
REMARK   97  A    between atoms: _226  and  _229
REMARK   98  A    between atoms: _229  and  _230
REMARK   99  A    between atoms: _233  and  _235
REMARK  100  A    between atoms: _235  and  _236
REMARK  101  A    between atoms: _235  and  _238
REMARK  102  A    between atoms: _238  and  _239
REMARK  103  A    between atoms: _242  and  _244
REMARK  104  A    between atoms: _244  and  _245
REMARK  105  A    between atoms: _244  and  _247
REMARK  106  A    between atoms: _247  and  _248
REMARK  107  A    between atoms: _248  and  _249
REMARK  108  A    between atoms: _254  and  _256
REMARK  109  A    between atoms: _256  and  _257
REMARK  110  A    between atoms: _256  and  _259
REMARK  111  A    between atoms: _262  and  _264
REMARK  112  A    between atoms: _264  and  _265
REMARK  113  A    between atoms: _264  and  _267
REMARK  114  A    between atoms: _267  and  _268
REMARK  115  A    between atoms: _271  and  _273
REMARK  116  A    between atoms: _273  and  _274
REMARK  117  A    between atoms: _273  and  _276
REMARK  118  A    between atoms: _276  and  _277
REMARK  119  A    between atoms: _277  and  _278
REMARK  120  A    between atoms: _280  and  _282
REMARK  121  A    between atoms: _282  and  _283
REMARK  122  A    between atoms: _282  and  _285
REMARK  123  A    between atoms: _285  and  _286
REMARK  124  A    between atoms: _286  and  _287
REMARK  125  A    between atoms: _290  and  _292
REMARK  126  A    between atoms: _292  and  _293
REMARK  127  A    between atoms: _292  and  _295
REMARK  128  A    between atoms: _295  and  _296
REMARK  129  A    between atoms: _299  and  _301
REMARK  130  A    between atoms: _301  and  _302
REMARK  131  A    between atoms: _301  and  _304
REMARK  132  A    between atoms: _304  and  _305
REMARK  133  A    between atoms: _308  and  _310
REMARK  134  A    between atoms: _310  and  _311
REMARK  135  A    between atoms: _310  and  _313
REMARK  136  A    between atoms: _313  and  _314
REMARK  137  A    between atoms: _319  and  _321
REMARK  138  A    between atoms: _321  and  _322
REMARK  139  A    between atoms: _325  and  _327
REMARK  140  A    between atoms: _327  and  _328
REMARK  141  A    between atoms: _327  and  _330
REMARK  142  A    between atoms: _330  and  _331
REMARK  143  A    between atoms: _334  and  _336
REMARK  144  A    between atoms: _336  and  _337
REMARK  145  A    between atoms: _336  and  _339
REMARK  146  A    between atoms: _342  and  _344
REMARK  147  A    between atoms: _344  and  _345
REMARK  148  A    between atoms: _344  and  _347
REMARK  149  A    between atoms: _347  and  _348
REMARK  150  A    between atoms: _348  and  _349
REMARK  151  A    between atoms: _349  and  _350
REMARK  152  A    between atoms: _359  and  _361
REMARK  153  A    between atoms: _361  and  _362
REMARK  154  A    between atoms: _361  and  _364
REMARK  155  A    between atoms: _364  and  _365
REMARK  156  A    between atoms: _368  and  _370
REMARK  157  A    between atoms: _370  and  _371
REMARK  158  A    between atoms: _370  and  _373
REMARK  159  A    between atoms: _373  and  _374
REMARK  160  A    between atoms: _377  and  _379
REMARK  161  A    between atoms: _379  and  _380
REMARK  162  A    between atoms: _379  and  _382
REMARK  163  A    between atoms: _382  and  _383
REMARK  164  A    between atoms: _383  and  _384
REMARK  165  A    between atoms: _389  and  _391
REMARK  166  A    between atoms: _391  and  _392
REMARK  167  A    between atoms: _391  and  _394
REMARK  168  A    between atoms: _397  and  _399
REMARK  169  A    between atoms: _399  and  _400
REMARK  170  A    between atoms: _399  and  _402
REMARK  171  A    between atoms: _402  and  _403
REMARK  172  A    between atoms: _406  and  _408
REMARK  173  A    between atoms: _408  and  _409
REMARK  174  A    between atoms: _408  and  _411
REMARK  175  A    between atoms: _411  and  _412
REMARK  176  A    between atoms: _412  and  _413
REMARK  177  A    between atoms: _415  and  _417
REMARK  178  A    between atoms: _417  and  _418
REMARK  179  A    between atoms: _417  and  _420
REMARK  180  A    between atoms: _420  and  _421
REMARK  181  A    between atoms: _421  and  _422
REMARK  182  A    between atoms: _425  and  _427
REMARK  183  A    between atoms: _427  and  _428
REMARK  184  A    between atoms: _427  and  _430
REMARK  185  A    between atoms: _430  and  _431
REMARK  186  A    between atoms: _434  and  _436
REMARK  187  A    between atoms: _436  and  _437
REMARK  188  A    between atoms: _436  and  _439
REMARK  189  A    between atoms: _439  and  _440
REMARK  190  A    between atoms: _443  and  _445
REMARK  191  A    between atoms: _445  and  _446
REMARK  192  A    between atoms: _445  and  _448
REMARK  193  A    between atoms: _448  and  _449
REMARK  194  A    between atoms: _454  and  _456
REMARK  195  A    between atoms: _456  and  _457
REMARK  196  A    between atoms: _460  and  _462
REMARK  197  A    between atoms: _462  and  _463
REMARK  198  A    between atoms: _462  and  _465
REMARK  199  A    between atoms: _465  and  _466
REMARK  200  A    between atoms: _469  and  _471
REMARK  201  A    between atoms: _471  and  _472
REMARK  202  A    between atoms: _471  and  _474
REMARK  203  A    between atoms: _477  and  _479
REMARK  204  A    between atoms: _479  and  _480
REMARK  205  A    between atoms: _479  and  _482
REMARK  206  A    between atoms: _482  and  _483
REMARK  207  A    between atoms: _483  and  _484
REMARK  208  A    between atoms: _484  and  _485
REMARK  209  A    between atoms: _494  and  _496
REMARK  210  A    between atoms: _496  and  _497
REMARK  211  A    between atoms: _496  and  _499
REMARK  212  A    between atoms: _499  and  _500
REMARK  213  A    between atoms: _503  and  _505
REMARK  214  A    between atoms: _505  and  _506
REMARK  215  A    between atoms: _505  and  _508
REMARK  216  A    between atoms: _508  and  _509
REMARK  217  A    between atoms: _512  and  _514
REMARK  218  A    between atoms: _514  and  _515
REMARK  219  A    between atoms: _514  and  _517
REMARK  220  A    between atoms: _517  and  _518
REMARK  221  A    between atoms: _518  and  _519
REMARK  222  A    between atoms: _524  and  _526
REMARK  223  A    between atoms: _526  and  _527
REMARK  224  A    between atoms: _526  and  _529
REMARK  225  A    between atoms: _532  and  _534
REMARK  226  A    between atoms: _534  and  _535
REMARK  227  A    between atoms: _534  and  _537
REMARK  228  A    between atoms: _537  and  _538
REMARK  229  A    between atoms: _541  and  _543
REMARK  230  A    between atoms: _543  and  _544
REMARK  231  A    between atoms: _543  and  _546
REMARK  232  A    between atoms: _546  and  _547
REMARK  233  A    between atoms: _547  and  _548
REMARK  234  A    between atoms: _550  and  _552
REMARK  235  A    between atoms: _552  and  _553
REMARK  236  A    between atoms: _552  and  _555
REMARK  237  A    between atoms: _555  and  _556
REMARK  238  A    between atoms: _556  and  _557
REMARK  239  A    between atoms: _560  and  _562
REMARK  240  A    between atoms: _562  and  _563
REMARK  241  A    between atoms: _562  and  _565
REMARK  242  A    between atoms: _565  and  _566
REMARK  243  A    between atoms: _569  and  _571
REMARK  244  A    between atoms: _571  and  _572
REMARK  245  A    between atoms: _571  and  _574
REMARK  246  A    between atoms: _574  and  _575
REMARK  247  A    between atoms: _575  and  _576
REMARK  248  A    between atoms: _581  and  _583
REMARK  249  A    between atoms: _583  and  _584
REMARK  250  A    between atoms: _583  and  _586
REMARK  251  A    between atoms: _586  and  _587
REMARK  252  A    between atoms: _590  and  _592
REMARK  253  A    between atoms: _592  and  _593
REMARK  254  A    between atoms: _592  and  _595
REMARK  255  A    between atoms: _595  and  _596
REMARK  256  A    between atoms: _601  and  _603
REMARK  257  A    between atoms: _603  and  _604
REMARK  258  A    between atoms: _607  and  _609
REMARK  259  A    between atoms: _609  and  _610
REMARK  260  A    between atoms: _609  and  _612
REMARK  261  A    between atoms: _612  and  _613
REMARK  262  A    between atoms: _616  and  _618
REMARK  263  A    between atoms: _618  and  _619
REMARK  264  A    between atoms: _618  and  _621
REMARK  265  A    between atoms: _624  and  _626
REMARK  266  A    between atoms: _626  and  _627
REMARK  267  A    between atoms: _626  and  _629
REMARK  268  A    between atoms: _629  and  _630
REMARK  269  A    between atoms: _630  and  _631
REMARK  270  A    between atoms: _631  and  _632
REMARK  271  A    between atoms: _641  and  _643
REMARK  272  A    between atoms: _643  and  _644
REMARK  273  A    between atoms: _643  and  _646
REMARK  274  A    between atoms: _646  and  _647
REMARK  275  A    between atoms: _650  and  _652
REMARK  276  A    between atoms: _652  and  _653
REMARK  277  A    between atoms: _652  and  _655
REMARK  278  A    between atoms: _655  and  _656
REMARK  279  A    between atoms: _659  and  _661
REMARK  280  A    between atoms: _661  and  _662
REMARK  281  A    between atoms: _661  and  _664
REMARK  282  A    between atoms: _664  and  _665
REMARK  283  A    between atoms: _665  and  _666
REMARK  284  A    between atoms: _666  and  _667
REMARK  285  A    between atoms: _676  and  _678
REMARK  286  A    between atoms: _678  and  _679
REMARK  287  A    between atoms: _678  and  _681
REMARK  288  A    between atoms: _681  and  _682
REMARK  289  A    between atoms: _682  and  _683
REMARK  290  A    between atoms: _688  and  _690
REMARK  291  A    between atoms: _690  and  _691
REMARK  292  A    between atoms: _690  and  _693
REMARK  293  A    between atoms: _696  and  _698
REMARK  294  A    between atoms: _698  and  _699
REMARK  295  A    between atoms: _698  and  _701
REMARK  296  A    between atoms: _701  and  _702
REMARK                            x       y       z     vdW  Elec       q    Type
REMARK                         _______ _______ _______ _____ _____    ______ ____
ROOT
ATOM      1  CA  ILE A   1     -10.013  -3.461  14.052  0.00  0.00    +0.133 C 
ENDROOT
BRANCH   1   2
ATOM      2  N   ILE A   1      -9.747  -4.733  13.387  0.00  0.00    -0.239 NA
ATOM      3  H   ILE A   1      -9.058  -4.770  12.609  0.00  0.00    +0.142 HD
ENDBRANCH   1   2
BRANCH   1   4
ATOM      4  C   ILE A   1     -11.467  -3.058  13.836  0.00  0.00    +0.224 C 
ATOM      5  O   ILE A   1     -12.135  -2.572  14.755  0.00  0.00    -0.287 OA
ENDBRANCH   1   4
BRANCH   1   6
ATOM      6  CB  ILE A   1      -9.097  -2.355  13.513  0.00  0.00    +0.023 C 
ATOM      7  CG2 ILE A   1      -9.553  -0.979  14.034  0.00  0.00    +0.002 C 
BRANCH   6   8
ATOM      8  CG1 ILE A   1      -7.654  -2.645  13.936  0.00  0.00    +0.002 C 
ATOM      9  CD1 ILE A   1      -6.651  -1.648  13.416  0.00  0.00    +0.000 C 
ENDBRANCH   6   8
ENDBRANCH   1   6
TORSDOF 4
REMARK  Name = ../refined-set-2016/3v2p/3v2p_pocket.pdb
REMARK  296 active torsions:
REMARK  status: ('A' for Active; 'I' for Inactive)
REMARK    1  A    between atoms: _1  and  _3
REMARK    2  A    between atoms: _3  and  _4
REMARK    3  A    between atoms: _3  and  _6
REMARK    4  A    between atoms: _6  and  _7
REMARK    5  A    between atoms: _7  and  _8
REMARK    6  A    between atoms: _10  and  _12
REMARK    7  A    between atoms: _12  and  _13
REMARK    8  A    between atoms: _12  and  _15
REMARK    9  A    between atoms: _15  and  _16
REMARK   10  A    between atoms: _16  and  _17
REMARK   11  A    between atoms: _20  and  _22
REMARK   12  A    between atoms: _22  and  _23
REMARK   13  A    between atoms: _22  and  _25
REMARK   14  A    between atoms: _25  and  _26
REMARK   15  A    between atoms: _29  and  _31
REMARK   16  A    between atoms: _31  and  _32
REMARK   17  A    between atoms: _31  and  _34
REMARK   18  A    between atoms: _34  and  _35
REMARK   19  A    between atoms: _38  and  _40
REMARK   20  A    between atoms: _40  and  _41
REMARK   21  A    between atoms: _40  and  _43
REMARK   22  A    between atoms: _43  and  _44
REMARK   23  A    between atoms: _49  and  _51
REMARK   24  A    between atoms: _51  and  _52
REMARK   25  A    between atoms: _55  and  _57
REMARK   26  A    between atoms: _57  and  _58
REMARK   27  A    between atoms: _57  and  _60
REMARK   28  A    between atoms: _60  and  _61
REMARK   29  A    between atoms: _64  and  _66
REMARK   30  A    between atoms: _66  and  _67
REMARK   31  A    between atoms: _66  and  _69
REMARK   32  A    between atoms: _72  and  _74
REMARK   33  A    between atoms: _74  and  _75
REMARK   34  A    between atoms: _74  and  _77
REMARK   35  A    between atoms: _77  and  _78
REMARK   36  A    between atoms: _78  and  _79
REMARK   37  A    between atoms: _79  and  _80
REMARK   38  A    between atoms: _89  and  _91
REMARK   39  A    between atoms: _91  and  _92
REMARK   40  A    between atoms: _91  and  _94
REMARK   41  A    between atoms: _94  and  _95
REMARK   42  A    between atoms: _98  and  _100
REMARK   43  A    between atoms: _100  and  _101
REMARK   44  A    between atoms: _100  and  _103
REMARK   45  A    between atoms: _103  and  _104
REMARK   46  A    between atoms: _107  and  _109
REMARK   47  A    between atoms: _109  and  _110
REMARK   48  A    between atoms: _109  and  _112
REMARK   49  A    between atoms: _112  and  _113
REMARK   50  A    between atoms: _113  and  _114
REMARK   51  A    between atoms: _119  and  _121
REMARK   52  A    between atoms: _121  and  _122
REMARK   53  A    between atoms: _121  and  _124
REMARK   54  A    between atoms: _127  and  _129
REMARK   55  A    between atoms: _129  and  _130
REMARK   56  A    between atoms: _129  and  _132
REMARK   57  A    between atoms: _132  and  _133
REMARK   58  A    between atoms: _136  and  _138
REMARK   59  A    between atoms: _138  and  _139
REMARK   60  A    between atoms: _138  and  _141
REMARK   61  A    between atoms: _141  and  _142
REMARK   62  A    between atoms: _142  and  _143
REMARK   63  A    between atoms: _145  and  _147
REMARK   64  A    between atoms: _147  and  _148
REMARK   65  A    between atoms: _147  and  _150
REMARK   66  A    between atoms: _150  and  _151
REMARK   67  A    between atoms: _151  and  _152
REMARK   68  A    between atoms: _155  and  _157
REMARK   69  A    between atoms: _157  and  _158
REMARK   70  A    between atoms: _157  and  _160
REMARK   71  A    between atoms: _160  and  _161
REMARK   72  A    between atoms: _164  and  _166
REMARK   73  A    between atoms: _166  and  _167
REMARK   74  A    between atoms: _166  and  _169
REMARK   75  A    between atoms: _169  and  _170
REMARK   76  A    between atoms: _173  and  _175
REMARK   77  A    between atoms: _175  and  _176
REMARK   78  A    between atoms: _175  and  _178
REMARK   79  A    between atoms: _178  and  _179
REMARK   80  A    between atoms: _184  and  _186
REMARK   81  A    between atoms: _186  and  _187
REMARK   82  A    between atoms: _190  and  _192
REMARK   83  A    between atoms: _192  and  _193
REMARK   84  A    between atoms: _192  and  _195
REMARK   85  A    between atoms: _195  and  _196
REMARK   86  A    between atoms: _199  and  _201
REMARK   87  A    between atoms: _201  and  _202
REMARK   88  A    between atoms: _201  and  _204
REMARK   89  A    between atoms: _207  and  _209
REMARK   90  A    between atoms: _209  and  _210
REMARK   91  A    between atoms: _209  and  _212
REMARK   92  A    between atoms: _212  and  _213
REMARK   93  A    between atoms: _213  and  _214
REMARK   94  A    between atoms: _214  and  _215
REMARK   95  A    between atoms: _224  and  _226
REMARK   96  A    between atoms: _226  and  _227
REMARK   97  A    between atoms: _226  and  _229
REMARK   98  A    between atoms: _229  and  _230
REMARK   99  A    between atoms: _233  and  _235
REMARK  100  A    between atoms: _235  and  _236
REMARK  101  A    between atoms: _235  and  _238
REMARK  102  A    between atoms: _238  and  _239
REMARK  103  A    between atoms: _242  and  _244
REMARK  104  A    between atoms: _244  and  _245
REMARK  105  A    between atoms: _244  and  _247
REMARK  106  A    between atoms: _247  and  _248
REMARK  107  A    between atoms: _248  and  _249
REMARK  108  A    between atoms: _254  and  _256
REMARK  109  A    between atoms: _256  and  _257
REMARK  110  A    between atoms: _256  and  _259
REMARK  111  A    between atoms: _262  and  _264
REMARK  112  A    between atoms: _264  and  _265
REMARK  113  A    between atoms: _264  and  _267
REMARK  114  A    between atoms: _267  and  _268
REMARK  115  A    between atoms: _271  and  _273
REMARK  116  A    between atoms: _273  and  _274
REMARK  117  A    between atoms: _273  and  _276
REMARK  118  A    between atoms: _276  and  _277
REMARK  119  A    between atoms: _277  and  _278
REMARK  120  A    between atoms: _280  and  _282
REMARK  121  A    between atoms: _282  and  _283
REMARK  122  A    between atoms: _282  and  _285
REMARK  123  A    between atoms: _285  and  _286
REMARK  124  A    between atoms: _286  and  _287
REMARK  125  A    between atoms: _290  and  _292
REMARK  126  A    between atoms: _292  and  _293
REMARK  127  A    between atoms: _292  and  _295
REMARK  128  A    between atoms: _295  and  _296
REMARK  129  A    between atoms: _299  and  _301
REMARK  130  A    between atoms: _301  and  _302
REMARK  131  A    between atoms: _301  and  _304
REMARK  132  A    between atoms: _304  and  _305
REMARK  133  A    between atoms: _308  and  _310
REMARK  134  A    between atoms: _310  and  _311
REMARK  135  A    between atoms: _310  and  _313
REMARK  136  A    between atoms: _313  and  _314
REMARK  137  A    between atoms: _319  and  _321
REMARK  138  A    between atoms: _321  and  _322
REMARK  139  A    between atoms: _325  and  _327
REMARK  140  A    between atoms: _327  and  _328
REMARK  141  A    between atoms: _327  and  _330
REMARK  142  A    between atoms: _330  and  _331
REMARK  143  A    between atoms: _334  and  _336
REMARK  144  A    between atoms: _336  and  _337
REMARK  145  A    between atoms: _336  and  _339
REMARK  146  A    between atoms: _342  and  _344
REMARK  147  A    between atoms: _344  and  _345
REMARK  148  A    between atoms: _344  and  _347
REMARK  149  A    between atoms: _347  and  _348
REMARK  150  A    between atoms: _348  and  _349
REMARK  151  A    between atoms: _349  and  _350
REMARK  152  A    between atoms: _359  and  _361
REMARK  153  A    between atoms: _361  and  _362
REMARK  154  A    between atoms: _361  and  _364
REMARK  155  A    between atoms: _364  and  _365
REMARK  156  A    between atoms: _368  and  _370
REMARK  157  A    between atoms: _370  and  _371
REMARK  158  A    between atoms: _370  and  _373
REMARK  159  A    between atoms: _373  and  _374
REMARK  160  A    between atoms: _377  and  _379
REMARK  161  A    between atoms: _379  and  _380
REMARK  162  A    between atoms: _379  and  _382
REMARK  163  A    between atoms: _382  and  _383
REMARK  164  A    between atoms: _383  and  _384
REMARK  165  A    between atoms: _389  and  _391
REMARK  166  A    between atoms: _391  and  _392
REMARK  167  A    between atoms: _391  and  _394
REMARK  168  A    between atoms: _397  and  _399
REMARK  169  A    between atoms: _399  and  _400
REMARK  170  A    between atoms: _399  and  _402
REMARK  171  A    between atoms: _402  and  _403
REMARK  172  A    between atoms: _406  and  _408
REMARK  173  A    between atoms: _408  and  _409
REMARK  174  A    between atoms: _408  and  _411
REMARK  175  A    between atoms: _411  and  _412
REMARK  176  A    between atoms: _412  and  _413
REMARK  177  A    between atoms: _415  and  _417
REMARK  178  A    between atoms: _417  and  _418
REMARK  179  A    between atoms: _417  and  _420
REMARK  180  A    between atoms: _420  and  _421
REMARK  181  A    between atoms: _421  and  _422
REMARK  182  A    between atoms: _425  and  _427
REMARK  183  A    between atoms: _427  and  _428
REMARK  184  A    between atoms: _427  and  _430
REMARK  185  A    between atoms: _430  and  _431
REMARK  186  A    between atoms: _434  and  _436
REMARK  187  A    between atoms: _436  and  _437
REMARK  188  A    between atoms: _436  and  _439
REMARK  189  A    between atoms: _439  and  _440
REMARK  190  A    between atoms: _443  and  _445
REMARK  191  A    between atoms: _445  and  _446
REMARK  192  A    between atoms: _445  and  _448
REMARK  193  A    between atoms: _448  and  _449
REMARK  194  A    between atoms: _454  and  _456
REMARK  195  A    between atoms: _456  and  _457
REMARK  196  A    between atoms: _460  and  _462
REMARK  197  A    between atoms: _462  and  _463
REMARK  198  A    between atoms: _462  and  _465
REMARK  199  A    between atoms: _465  and  _466
REMARK  200  A    between atoms: _469  and  _471
REMARK  201  A    between atoms: _471  and  _472
REMARK  202  A    between atoms: _471  and  _474
REMARK  203  A    between atoms: _477  and  _479
REMARK  204  A    between atoms: _479  and  _480
REMARK  205  A    between atoms: _479  and  _482
REMARK  206  A    between atoms: _482  and  _483
REMARK  207  A    between atoms: _483  and  _484
REMARK  208  A    between atoms: _484  and  _485
REMARK  209  A    between atoms: _494  and  _496
REMARK  210  A    between atoms: _496  and  _497
REMARK  211  A    between atoms: _496  and  _499
REMARK  212  A    between atoms: _499  and  _500
REMARK  213  A    between atoms: _503  and  _505
REMARK  214  A    between atoms: _505  and  _506
REMARK  215  A    between atoms: _505  and  _508
REMARK  216  A    between atoms: _508  and  _509
REMARK  217  A    between atoms: _512  and  _514
REMARK  218  A    between atoms: _514  and  _515
REMARK  219  A    between atoms: _514  and  _517
REMARK  220  A    between atoms: _517  and  _518
REMARK  221  A    between atoms: _518  and  _519
REMARK  222  A    between atoms: _524  and  _526
REMARK  223  A    between atoms: _526  and  _527
REMARK  224  A    between atoms: _526  and  _529
REMARK  225  A    between atoms: _532  and  _534
REMARK  226  A    between atoms: _534  and  _535
REMARK  227  A    between atoms: _534  and  _537
REMARK  228  A    between atoms: _537  and  _538
REMARK  229  A    between atoms: _541  and  _543
REMARK  230  A    between atoms: _543  and  _544
REMARK  231  A    between atoms: _543  and  _546
REMARK  232  A    between atoms: _546  and  _547
REMARK  233  A    between atoms: _547  and  _548
REMARK  234  A    between atoms: _550  and  _552
REMARK  235  A    between atoms: _552  and  _553
REMARK  236  A    between atoms: _552  and  _555
REMARK  237  A    between atoms: _555  and  _556
REMARK  238  A    between atoms: _556  and  _557
REMARK  239  A    between atoms: _560  and  _562
REMARK  240  A    between atoms: _562  and  _563
REMARK  241  A    between atoms: _562  and  _565
REMARK  242  A    between atoms: _565  and  _566
REMARK  243  A    between atoms: _569  and  _571
REMARK  244  A    between atoms: _571  and  _572
REMARK  245  A    between atoms: _571  and  _574
REMARK  246  A    between atoms: _574  and  _575
REMARK  247  A    between atoms: _575  and  _576
REMARK  248  A    between atoms: _581  and  _583
REMARK  249  A    between atoms: _583  and  _584
REMARK  250  A    between atoms: _583  and  _586
REMARK  251  A    between atoms: _586  and  _587
REMARK  252  A    between atoms: _590  and  _592
REMARK  253  A    between atoms: _592  and  _593
REMARK  254  A    between atoms: _592  and  _595
REMARK  255  A    between atoms: _595  and  _596
REMARK  256  A    between atoms: _601  and  _603
REMARK  257  A    between atoms: _603  and  _604
REMARK  258  A    between atoms: _607  and  _609
REMARK  259  A    between atoms: _609  and  _610
REMARK  260  A    between atoms: _609  and  _612
REMARK  261  A    between atoms: _612  and  _613
REMARK  262  A    between atoms: _616  and  _618
REMARK  263  A    between atoms: _618  and  _619
REMARK  264  A    between atoms: _618  and  _621
REMARK  265  A    between atoms: _624  and  _626
REMARK  266  A    between atoms: _626  and  _627
REMARK  267  A    between atoms: _626  and  _629
REMARK  268  A    between atoms: _629  and  _630
REMARK  269  A    between atoms: _630  and  _631
REMARK  270  A    between atoms: _631  and  _632
REMARK  271  A    between atoms: _641  and  _643
REMARK  272  A    between atoms: _643  and  _644
REMARK  273  A    between atoms: _643  and  _646
REMARK  274  A    between atoms: _646  and  _647
REMARK  275  A    between atoms: _650  and  _652
REMARK  276  A    between atoms: _652  and  _653
REMARK  277  A    between atoms: _652  and  _655
REMARK  278  A    between atoms: _655  and  _656
REMARK  279  A    between atoms: _659  and  _661
REMARK  280  A    between atoms: _661  and  _662
REMARK  281  A    between atoms: _661  and  _664
REMARK  282  A    between atoms: _664  and  _665
REMARK  283  A    between atoms: _665  and  _666
REMARK  284  A    between atoms: _666  and  _667
REMARK  285  A    between atoms: _676  and  _678
REMARK  286  A    between atoms: _678  and  _679
REMARK  287  A    between atoms: _678  and  _681
REMARK  288  A    between atoms: _681  and  _682
REMARK  289  A    between atoms: _682  and  _683
REMARK  290  A    between atoms: _688  and  _690
REMARK  291  A    between atoms: _690  and  _691
REMARK  292  A    between atoms: _690  and  _693
REMARK  293  A    between atoms: _696  and  _698
REMARK  294  A    between atoms: _698  and  _699
REMARK  295  A    between atoms: _698  and  _701
REMARK  296  A    between atoms: _701  and  _702
REMARK                            x       y       z     vdW  Elec       q    Type
REMARK                         _______ _______ _______ _____ _____    ______ ____
ROOT
ATOM      1  CA  MET A   1      14.444  -3.203 -11.970  0.00  0.00    +0.134 C 
ENDROOT
BRANCH   1   2
ATOM      2  N   MET A   1      14.365  -3.935 -13.231  0.00  0.00    -0.239 NA
ATOM      3  H   MET A   1      15.150  -3.883 -13.911  0.00  0.00    +0.142 HD
ENDBRANCH   1   2
BRANCH   1   4
ATOM      4  C   MET A   1      13.368  -2.123 -11.923  0.00  0.00    +0.224 C 
ATOM      5  O   MET A   1      12.719  -1.937 -10.900  0.00  0.00    -0.287 OA
ENDBRANCH   1   4
BRANCH   1   6
ATOM      6  CB  MET A   1      15.822  -2.569 -11.801  0.00  0.00    +0.037 C 
BRANCH   6   7
ATOM      7  CG  MET A   1      16.953  -3.577 -11.717  0.00  0.00    +0.059 C 
BRANCH   7   8
ATOM      8  SD  MET A   1      18.535  -2.775 -11.402  0.00  0.00    -0.139 S 
ATOM      9  CE  MET A   1      18.415  -2.514  -9.666  0.00  0.00    +0.069 C 
ENDBRANCH   7   8
ENDBRANCH   6   7
ENDBRANCH   1   6
TORSDOF 5
REMARK  Name = ../refined-set-2016/3v2p/3v2p_pocket.pdb
REMARK  296 active torsions:
REMARK  status: ('A' for Active; 'I' for Inactive)
REMARK    1  A    between atoms: _1  and  _3
REMARK    2  A    between atoms: _3  and  _4
REMARK    3  A    between atoms: _3  and  _6
REMARK    4  A    between atoms: _6  and  _7
REMARK    5  A    between atoms: _7  and  _8
REMARK    6  A    between atoms: _10  and  _12
REMARK    7  A    between atoms: _12  and  _13
REMARK    8  A    between atoms: _12  and  _15
REMARK    9  A    between atoms: _15  and  _16
REMARK   10  A    between atoms: _16  and  _17
REMARK   11  A    between atoms: _20  and  _22
REMARK   12  A    between atoms: _22  and  _23
REMARK   13  A    between atoms: _22  and  _25
REMARK   14  A    between atoms: _25  and  _26
REMARK   15  A    between atoms: _29  and  _31
REMARK   16  A    between atoms: _31  and  _32
REMARK   17  A    between atoms: _31  and  _34
REMARK   18  A    between atoms: _34  and  _35
REMARK   19  A    between atoms: _38  and  _40
REMARK   20  A    between atoms: _40  and  _41
REMARK   21  A    between atoms: _40  and  _43
REMARK   22  A    between atoms: _43  and  _44
REMARK   23  A    between atoms: _49  and  _51
REMARK   24  A    between atoms: _51  and  _52
REMARK   25  A    between atoms: _55  and  _57
REMARK   26  A    between atoms: _57  and  _58
REMARK   27  A    between atoms: _57  and  _60
REMARK   28  A    between atoms: _60  and  _61
REMARK   29  A    between atoms: _64  and  _66
REMARK   30  A    between atoms: _66  and  _67
REMARK   31  A    between atoms: _66  and  _69
REMARK   32  A    between atoms: _72  and  _74
REMARK   33  A    between atoms: _74  and  _75
REMARK   34  A    between atoms: _74  and  _77
REMARK   35  A    between atoms: _77  and  _78
REMARK   36  A    between atoms: _78  and  _79
REMARK   37  A    between atoms: _79  and  _80
REMARK   38  A    between atoms: _89  and  _91
REMARK   39  A    between atoms: _91  and  _92
REMARK   40  A    between atoms: _91  and  _94
REMARK   41  A    between atoms: _94  and  _95
REMARK   42  A    between atoms: _98  and  _100
REMARK   43  A    between atoms: _100  and  _101
REMARK   44  A    between atoms: _100  and  _103
REMARK   45  A    between atoms: _103  and  _104
REMARK   46  A    between atoms: _107  and  _109
REMARK   47  A    between atoms: _109  and  _110
REMARK   48  A    between atoms: _109  and  _112
REMARK   49  A    between atoms: _112  and  _113
REMARK   50  A    between atoms: _113  and  _114
REMARK   51  A    between atoms: _119  and  _121
REMARK   52  A    between atoms: _121  and  _122
REMARK   53  A    between atoms: _121  and  _124
REMARK   54  A    between atoms: _127  and  _129
REMARK   55  A    between atoms: _129  and  _130
REMARK   56  A    between atoms: _129  and  _132
REMARK   57  A    between atoms: _132  and  _133
REMARK   58  A    between atoms: _136  and  _138
REMARK   59  A    between atoms: _138  and  _139
REMARK   60  A    between atoms: _138  and  _141
REMARK   61  A    between atoms: _141  and  _142
REMARK   62  A    between atoms: _142  and  _143
REMARK   63  A    between atoms: _145  and  _147
REMARK   64  A    between atoms: _147  and  _148
REMARK   65  A    between atoms: _147  and  _150
REMARK   66  A    between atoms: _150  and  _151
REMARK   67  A    between atoms: _151  and  _152
REMARK   68  A    between atoms: _155  and  _157
REMARK   69  A    between atoms: _157  and  _158
REMARK   70  A    between atoms: _157  and  _160
REMARK   71  A    between atoms: _160  and  _161
REMARK   72  A    between atoms: _164  and  _166
REMARK   73  A    between atoms: _166  and  _167
REMARK   74  A    between atoms: _166  and  _169
REMARK   75  A    between atoms: _169  and  _170
REMARK   76  A    between atoms: _173  and  _175
REMARK   77  A    between atoms: _175  and  _176
REMARK   78  A    between atoms: _175  and  _178
REMARK   79  A    between atoms: _178  and  _179
REMARK   80  A    between atoms: _184  and  _186
REMARK   81  A    between atoms: _186  and  _187
REMARK   82  A    between atoms: _190  and  _192
REMARK   83  A    between atoms: _192  and  _193
REMARK   84  A    between atoms: _192  and  _195
REMARK   85  A    between atoms: _195  and  _196
REMARK   86  A    between atoms: _199  and  _201
REMARK   87  A    between atoms: _201  and  _202
REMARK   88  A    between atoms: _201  and  _204
REMARK   89  A    between atoms: _207  and  _209
REMARK   90  A    between atoms: _209  and  _210
REMARK   91  A    between atoms: _209  and  _212
REMARK   92  A    between atoms: _212  and  _213
REMARK   93  A    between atoms: _213  and  _214
REMARK   94  A    between atoms: _214  and  _215
REMARK   95  A    between atoms: _224  and  _226
REMARK   96  A    between atoms: _226  and  _227
REMARK   97  A    between atoms: _226  and  _229
REMARK   98  A    between atoms: _229  and  _230
REMARK   99  A    between atoms: _233  and  _235
REMARK  100  A    between atoms: _235  and  _236
REMARK  101  A    between atoms: _235  and  _238
REMARK  102  A    between atoms: _238  and  _239
REMARK  103  A    between atoms: _242  and  _244
REMARK  104  A    between atoms: _244  and  _245
REMARK  105  A    between atoms: _244  and  _247
REMARK  106  A    between atoms: _247  and  _248
REMARK  107  A    between atoms: _248  and  _249
REMARK  108  A    between atoms: _254  and  _256
REMARK  109  A    between atoms: _256  and  _257
REMARK  110  A    between atoms: _256  and  _259
REMARK  111  A    between atoms: _262  and  _264
REMARK  112  A    between atoms: _264  and  _265
REMARK  113  A    between atoms: _264  and  _267
REMARK  114  A    between atoms: _267  and  _268
REMARK  115  A    between atoms: _271  and  _273
REMARK  116  A    between atoms: _273  and  _274
REMARK  117  A    between atoms: _273  and  _276
REMARK  118  A    between atoms: _276  and  _277
REMARK  119  A    between atoms: _277  and  _278
REMARK  120  A    between atoms: _280  and  _282
REMARK  121  A    between atoms: _282  and  _283
REMARK  122  A    between atoms: _282  and  _285
REMARK  123  A    between atoms: _285  and  _286
REMARK  124  A    between atoms: _286  and  _287
REMARK  125  A    between atoms: _290  and  _292
REMARK  126  A    between atoms: _292  and  _293
REMARK  127  A    between atoms: _292  and  _295
REMARK  128  A    between atoms: _295  and  _296
REMARK  129  A    between atoms: _299  and  _301
REMARK  130  A    between atoms: _301  and  _302
REMARK  131  A    between atoms: _301  and  _304
REMARK  132  A    between atoms: _304  and  _305
REMARK  133  A    between atoms: _308  and  _310
REMARK  134  A    between atoms: _310  and  _311
REMARK  135  A    between atoms: _310  and  _313
REMARK  136  A    between atoms: _313  and  _314
REMARK  137  A    between atoms: _319  and  _321
REMARK  138  A    between atoms: _321  and  _322
REMARK  139  A    between atoms: _325  and  _327
REMARK  140  A    between atoms: _327  and  _328
REMARK  141  A    between atoms: _327  and  _330
REMARK  142  A    between atoms: _330  and  _331
REMARK  143  A    between atoms: _334  and  _336
REMARK  144  A    between atoms: _336  and  _337
REMARK  145  A    between atoms: _336  and  _339
REMARK  146  A    between atoms: _342  and  _344
REMARK  147  A    between atoms: _344  and  _345
REMARK  148  A    between atoms: _344  and  _347
REMARK  149  A    between atoms: _347  and  _348
REMARK  150  A    between atoms: _348  and  _349
REMARK  151  A    between atoms: _349  and  _350
REMARK  152  A    between atoms: _359  and  _361
REMARK  153  A    between atoms: _361  and  _362
REMARK  154  A    between atoms: _361  and  _364
REMARK  155  A    between atoms: _364  and  _365
REMARK  156  A    between atoms: _368  and  _370
REMARK  157  A    between atoms: _370  and  _371
REMARK  158  A    between atoms: _370  and  _373
REMARK  159  A    between atoms: _373  and  _374
REMARK  160  A    between atoms: _377  and  _379
REMARK  161  A    between atoms: _379  and  _380
REMARK  162  A    between atoms: _379  and  _382
REMARK  163  A    between atoms: _382  and  _383
REMARK  164  A    between atoms: _383  and  _384
REMARK  165  A    between atoms: _389  and  _391
REMARK  166  A    between atoms: _391  and  _392
REMARK  167  A    between atoms: _391  and  _394
REMARK  168  A    between atoms: _397  and  _399
REMARK  169  A    between atoms: _399  and  _400
REMARK  170  A    between atoms: _399  and  _402
REMARK  171  A    between atoms: _402  and  _403
REMARK  172  A    between atoms: _406  and  _408
REMARK  173  A    between atoms: _408  and  _409
REMARK  174  A    between atoms: _408  and  _411
REMARK  175  A    between atoms: _411  and  _412
REMARK  176  A    between atoms: _412  and  _413
REMARK  177  A    between atoms: _415  and  _417
REMARK  178  A    between atoms: _417  and  _418
REMARK  179  A    between atoms: _417  and  _420
REMARK  180  A    between atoms: _420  and  _421
REMARK  181  A    between atoms: _421  and  _422
REMARK  182  A    between atoms: _425  and  _427
REMARK  183  A    between atoms: _427  and  _428
REMARK  184  A    between atoms: _427  and  _430
REMARK  185  A    between atoms: _430  and  _431
REMARK  186  A    between atoms: _434  and  _436
REMARK  187  A    between atoms: _436  and  _437
REMARK  188  A    between atoms: _436  and  _439
REMARK  189  A    between atoms: _439  and  _440
REMARK  190  A    between atoms: _443  and  _445
REMARK  191  A    between atoms: _445  and  _446
REMARK  192  A    between atoms: _445  and  _448
REMARK  193  A    between atoms: _448  and  _449
REMARK  194  A    between atoms: _454  and  _456
REMARK  195  A    between atoms: _456  and  _457
REMARK  196  A    between atoms: _460  and  _462
REMARK  197  A    between atoms: _462  and  _463
REMARK  198  A    between atoms: _462  and  _465
REMARK  199  A    between atoms: _465  and  _466
REMARK  200  A    between atoms: _469  and  _471
REMARK  201  A    between atoms: _471  and  _472
REMARK  202  A    between atoms: _471  and  _474
REMARK  203  A    between atoms: _477  and  _479
REMARK  204  A    between atoms: _479  and  _480
REMARK  205  A    between atoms: _479  and  _482
REMARK  206  A    between atoms: _482  and  _483
REMARK  207  A    between atoms: _483  and  _484
REMARK  208  A    between atoms: _484  and  _485
REMARK  209  A    between atoms: _494  and  _496
REMARK  210  A    between atoms: _496  and  _497
REMARK  211  A    between atoms: _496  and  _499
REMARK  212  A    between atoms: _499  and  _500
REMARK  213  A    between atoms: _503  and  _505
REMARK  214  A    between atoms: _505  and  _506
REMARK  215  A    between atoms: _505  and  _508
REMARK  216  A    between atoms: _508  and  _509
REMARK  217  A    between atoms: _512  and  _514
REMARK  218  A    between atoms: _514  and  _515
REMARK  219  A    between atoms: _514  and  _517
REMARK  220  A    between atoms: _517  and  _518
REMARK  221  A    between atoms: _518  and  _519
REMARK  222  A    between atoms: _524  and  _526
REMARK  223  A    between atoms: _526  and  _527
REMARK  224  A    between atoms: _526  and  _529
REMARK  225  A    between atoms: _532  and  _534
REMARK  226  A    between atoms: _534  and  _535
REMARK  227  A    between atoms: _534  and  _537
REMARK  228  A    between atoms: _537  and  _538
REMARK  229  A    between atoms: _541  and  _543
REMARK  230  A    between atoms: _543  and  _544
REMARK  231  A    between atoms: _543  and  _546
REMARK  232  A    between atoms: _546  and  _547
REMARK  233  A    between atoms: _547  and  _548
REMARK  234  A    between atoms: _550  and  _552
REMARK  235  A    between atoms: _552  and  _553
REMARK  236  A    between atoms: _552  and  _555
REMARK  237  A    between atoms: _555  and  _556
REMARK  238  A    between atoms: _556  and  _557
REMARK  239  A    between atoms: _560  and  _562
REMARK  240  A    between atoms: _562  and  _563
REMARK  241  A    between atoms: _562  and  _565
REMARK  242  A    between atoms: _565  and  _566
REMARK  243  A    between atoms: _569  and  _571
REMARK  244  A    between atoms: _571  and  _572
REMARK  245  A    between atoms: _571  and  _574
REMARK  246  A    between atoms: _574  and  _575
REMARK  247  A    between atoms: _575  and  _576
REMARK  248  A    between atoms: _581  and  _583
REMARK  249  A    between atoms: _583  and  _584
REMARK  250  A    between atoms: _583  and  _586
REMARK  251  A    between atoms: _586  and  _587
REMARK  252  A    between atoms: _590  and  _592
REMARK  253  A    between atoms: _592  and  _593
REMARK  254  A    between atoms: _592  and  _595
REMARK  255  A    between atoms: _595  and  _596
REMARK  256  A    between atoms: _601  and  _603
REMARK  257  A    between atoms: _603  and  _604
REMARK  258  A    between atoms: _607  and  _609
REMARK  259  A    between atoms: _609  and  _610
REMARK  260  A    between atoms: _609  and  _612
REMARK  261  A    between atoms: _612  and  _613
REMARK  262  A    between atoms: _616  and  _618
REMARK  263  A    between atoms: _618  and  _619
REMARK  264  A    between atoms: _618  and  _621
REMARK  265  A    between atoms: _624  and  _626
REMARK  266  A    between atoms: _626  and  _627
REMARK  267  A    between atoms: _626  and  _629
REMARK  268  A    between atoms: _629  and  _630
REMARK  269  A    between atoms: _630  and  _631
REMARK  270  A    between atoms: _631  and  _632
REMARK  271  A    between atoms: _641  and  _643
REMARK  272  A    between atoms: _643  and  _644
REMARK  273  A    between atoms: _643  and  _646
REMARK  274  A    between atoms: _646  and  _647
REMARK  275  A    between atoms: _650  and  _652
REMARK  276  A    between atoms: _652  and  _653
REMARK  277  A    between atoms: _652  and  _655
REMARK  278  A    between atoms: _655  and  _656
REMARK  279  A    between atoms: _659  and  _661
REMARK  280  A    between atoms: _661  and  _662
REMARK  281  A    between atoms: _661  and  _664
REMARK  282  A    between atoms: _664  and  _665
REMARK  283  A    between atoms: _665  and  _666
REMARK  284  A    between atoms: _666  and  _667
REMARK  285  A    between atoms: _676  and  _678
REMARK  286  A    between atoms: _678  and  _679
REMARK  287  A    between atoms: _678  and  _681
REMARK  288  A    between atoms: _681  and  _682
REMARK  289  A    between atoms: _682  and  _683
REMARK  290  A    between atoms: _688  and  _690
REMARK  291  A    between atoms: _690  and  _691
REMARK  292  A    between atoms: _690  and  _693
REMARK  293  A    between atoms: _696  and  _698
REMARK  294  A    between atoms: _698  and  _699
REMARK  295  A    between atoms: _698  and  _701
REMARK  296  A    between atoms: _701  and  _702
REMARK                            x       y       z     vdW  Elec       q    Type
REMARK                         _______ _______ _______ _____ _____    ______ ____
ROOT
ATOM      1  C   GLU A   1       9.605  -2.649  -8.820  0.00  0.00    +0.238 C 
ATOM      2  O   GLU A   1       8.793  -2.668  -7.903  0.00  0.00    -0.274 OA
ATOM      3  N   LEU A   2      10.261  -1.548  -9.178  0.00  0.00    -0.298 N 
ATOM      4  H   LEU A   2      10.946  -1.593  -9.959  0.00  0.00    +0.150 HD
ENDROOT
BRANCH   1   5
ATOM      5  CA  GLU A   1       9.927  -3.925  -9.602  0.00  0.00    +0.145 C 
BRANCH   5   6
ATOM      6  N   GLU A   1      10.045  -3.588 -11.017  0.00  0.00    -0.238 NA
ATOM      7  H   GLU A   1      10.955  -3.715 -11.504  0.00  0.00    +0.142 HD
ENDBRANCH   5   6
BRANCH   5   8
ATOM      8  CB  GLU A   1      11.236  -4.509  -9.061  0.00  0.00    +0.038 C 
BRANCH   8   9
ATOM      9  CG  GLU A   1      11.604  -5.884  -9.598  0.00  0.00    +0.116 C 
BRANCH   9  10
ATOM     10  CD  GLU A   1      10.513  -6.910  -9.384  0.00  0.00    +0.365 C 
ATOM     11  OE2 GLU A   1       9.979  -7.007  -8.256  0.00  0.00    -0.246 OA
ATOM     12  OE1 GLU A   1      10.190  -7.627 -10.351  0.00  0.00    -0.246 OA
ENDBRANCH   9  10
ENDBRANCH   8   9
ENDBRANCH   5   8
ENDBRANCH   1   5
BRANCH   3  13
ATOM     13  CA  LEU A   2      10.036  -0.275  -8.493  0.00  0.00    +0.137 C 
BRANCH  13  14
ATOM     14  C   LEU A   2       8.609   0.226  -8.668  0.00  0.00    +0.227 C 
ATOM     15  O   LEU A   2       8.034   0.814  -7.751  0.00  0.00    -0.286 OA
ENDBRANCH  13  14
BRANCH  13  16
ATOM     16  CB  LEU A   2      11.014   0.790  -8.994  0.00  0.00    +0.028 C 
BRANCH  16  17
ATOM     17  CG  LEU A   2      12.487   0.582  -8.640  0.00  0.00    +0.002 C 
ATOM     18  CD2 LEU A   2      12.643   0.582  -7.130  0.00  0.00    +0.000 C 
ATOM     19  CD1 LEU A   2      13.330   1.686  -9.265  0.00  0.00    +0.000 C 
ENDBRANCH  16  17
ENDBRANCH  13  16
ENDBRANCH   3  13
TORSDOF 9
REMARK  Name = ../refined-set-2016/3v2p/3v2p_pocket.pdb
REMARK  296 active torsions:
REMARK  status: ('A' for Active; 'I' for Inactive)
REMARK    1  A    between atoms: _1  and  _3
REMARK    2  A    between atoms: _3  and  _4
REMARK    3  A    between atoms: _3  and  _6
REMARK    4  A    between atoms: _6  and  _7
REMARK    5  A    between atoms: _7  and  _8
REMARK    6  A    between atoms: _10  and  _12
REMARK    7  A    between atoms: _12  and  _13
REMARK    8  A    between atoms: _12  and  _15
REMARK    9  A    between atoms: _15  and  _16
REMARK   10  A    between atoms: _16  and  _17
REMARK   11  A    between atoms: _20  and  _22
REMARK   12  A    between atoms: _22  and  _23
REMARK   13  A    between atoms: _22  and  _25
REMARK   14  A    between atoms: _25  and  _26
REMARK   15  A    between atoms: _29  and  _31
REMARK   16  A    between atoms: _31  and  _32
REMARK   17  A    between atoms: _31  and  _34
REMARK   18  A    between atoms: _34  and  _35
REMARK   19  A    between atoms: _38  and  _40
REMARK   20  A    between atoms: _40  and  _41
REMARK   21  A    between atoms: _40  and  _43
REMARK   22  A    between atoms: _43  and  _44
REMARK   23  A    between atoms: _49  and  _51
REMARK   24  A    between atoms: _51  and  _52
REMARK   25  A    between atoms: _55  and  _57
REMARK   26  A    between atoms: _57  and  _58
REMARK   27  A    between atoms: _57  and  _60
REMARK   28  A    between atoms: _60  and  _61
REMARK   29  A    between atoms: _64  and  _66
REMARK   30  A    between atoms: _66  and  _67
REMARK   31  A    between atoms: _66  and  _69
REMARK   32  A    between atoms: _72  and  _74
REMARK   33  A    between atoms: _74  and  _75
REMARK   34  A    between atoms: _74  and  _77
REMARK   35  A    between atoms: _77  and  _78
REMARK   36  A    between atoms: _78  and  _79
REMARK   37  A    between atoms: _79  and  _80
REMARK   38  A    between atoms: _89  and  _91
REMARK   39  A    between atoms: _91  and  _92
REMARK   40  A    between atoms: _91  and  _94
REMARK   41  A    between atoms: _94  and  _95
REMARK   42  A    between atoms: _98  and  _100
REMARK   43  A    between atoms: _100  and  _101
REMARK   44  A    between atoms: _100  and  _103
REMARK   45  A    between atoms: _103  and  _104
REMARK   46  A    between atoms: _107  and  _109
REMARK   47  A    between atoms: _109  and  _110
REMARK   48  A    between atoms: _109  and  _112
REMARK   49  A    between atoms: _112  and  _113
REMARK   50  A    between atoms: _113  and  _114
REMARK   51  A    between atoms: _119  and  _121
REMARK   52  A    between atoms: _121  and  _122
REMARK   53  A    between atoms: _121  and  _124
REMARK   54  A    between atoms: _127  and  _129
REMARK   55  A    between atoms: _129  and  _130
REMARK   56  A    between atoms: _129  and  _132
REMARK   57  A    between atoms: _132  and  _133
REMARK   58  A    between atoms: _136  and  _138
REMARK   59  A    between atoms: _138  and  _139
REMARK   60  A    between atoms: _138  and  _141
REMARK   61  A    between atoms: _141  and  _142
REMARK   62  A    between atoms: _142  and  _143
REMARK   63  A    between atoms: _145  and  _147
REMARK   64  A    between atoms: _147  and  _148
REMARK   65  A    between atoms: _147  and  _150
REMARK   66  A    between atoms: _150  and  _151
REMARK   67  A    between atoms: _151  and  _152
REMARK   68  A    between atoms: _155  and  _157
REMARK   69  A    between atoms: _157  and  _158
REMARK   70  A    between atoms: _157  and  _160
REMARK   71  A    between atoms: _160  and  _161
REMARK   72  A    between atoms: _164  and  _166
REMARK   73  A    between atoms: _166  and  _167
REMARK   74  A    between atoms: _166  and  _169
REMARK   75  A    between atoms: _169  and  _170
REMARK   76  A    between atoms: _173  and  _175
REMARK   77  A    between atoms: _175  and  _176
REMARK   78  A    between atoms: _175  and  _178
REMARK   79  A    between atoms: _178  and  _179
REMARK   80  A    between atoms: _184  and  _186
REMARK   81  A    between atoms: _186  and  _187
REMARK   82  A    between atoms: _190  and  _192
REMARK   83  A    between atoms: _192  and  _193
REMARK   84  A    between atoms: _192  and  _195
REMARK   85  A    between atoms: _195  and  _196
REMARK   86  A    between atoms: _199  and  _201
REMARK   87  A    between atoms: _201  and  _202
REMARK   88  A    between atoms: _201  and  _204
REMARK   89  A    between atoms: _207  and  _209
REMARK   90  A    between atoms: _209  and  _210
REMARK   91  A    between atoms: _209  and  _212
REMARK   92  A    between atoms: _212  and  _213
REMARK   93  A    between atoms: _213  and  _214
REMARK   94  A    between atoms: _214  and  _215
REMARK   95  A    between atoms: _224  and  _226
REMARK   96  A    between atoms: _226  and  _227
REMARK   97  A    between atoms: _226  and  _229
REMARK   98  A    between atoms: _229  and  _230
REMARK   99  A    between atoms: _233  and  _235
REMARK  100  A    between atoms: _235  and  _236
REMARK  101  A    between atoms: _235  and  _238
REMARK  102  A    between atoms: _238  and  _239
REMARK  103  A    between atoms: _242  and  _244
REMARK  104  A    between atoms: _244  and  _245
REMARK  105  A    between atoms: _244  and  _247
REMARK  106  A    between atoms: _247  and  _248
REMARK  107  A    between atoms: _248  and  _249
REMARK  108  A    between atoms: _254  and  _256
REMARK  109  A    between atoms: _256  and  _257
REMARK  110  A    between atoms: _256  and  _259
REMARK  111  A    between atoms: _262  and  _264
REMARK  112  A    between atoms: _264  and  _265
REMARK  113  A    between atoms: _264  and  _267
REMARK  114  A    between atoms: _267  and  _268
REMARK  115  A    between atoms: _271  and  _273
REMARK  116  A    between atoms: _273  and  _274
REMARK  117  A    between atoms: _273  and  _276
REMARK  118  A    between atoms: _276  and  _277
REMARK  119  A    between atoms: _277  and  _278
REMARK  120  A    between atoms: _280  and  _282
REMARK  121  A    between atoms: _282  and  _283
REMARK  122  A    between atoms: _282  and  _285
REMARK  123  A    between atoms: _285  and  _286
REMARK  124  A    between atoms: _286  and  _287
REMARK  125  A    between atoms: _290  and  _292
REMARK  126  A    between atoms: _292  and  _293
REMARK  127  A    between atoms: _292  and  _295
REMARK  128  A    between atoms: _295  and  _296
REMARK  129  A    between atoms: _299  and  _301
REMARK  130  A    between atoms: _301  and  _302
REMARK  131  A    between atoms: _301  and  _304
REMARK  132  A    between atoms: _304  and  _305
REMARK  133  A    between atoms: _308  and  _310
REMARK  134  A    between atoms: _310  and  _311
REMARK  135  A    between atoms: _310  and  _313
REMARK  136  A    between atoms: _313  and  _314
REMARK  137  A    between atoms: _319  and  _321
REMARK  138  A    between atoms: _321  and  _322
REMARK  139  A    between atoms: _325  and  _327
REMARK  140  A    between atoms: _327  and  _328
REMARK  141  A    between atoms: _327  and  _330
REMARK  142  A    between atoms: _330  and  _331
REMARK  143  A    between atoms: _334  and  _336
REMARK  144  A    between atoms: _336  and  _337
REMARK  145  A    between atoms: _336  and  _339
REMARK  146  A    between atoms: _342  and  _344
REMARK  147  A    between atoms: _344  and  _345
REMARK  148  A    between atoms: _344  and  _347
REMARK  149  A    between atoms: _347  and  _348
REMARK  150  A    between atoms: _348  and  _349
REMARK  151  A    between atoms: _349  and  _350
REMARK  152  A    between atoms: _359  and  _361
REMARK  153  A    between atoms: _361  and  _362
REMARK  154  A    between atoms: _361  and  _364
REMARK  155  A    between atoms: _364  and  _365
REMARK  156  A    between atoms: _368  and  _370
REMARK  157  A    between atoms: _370  and  _371
REMARK  158  A    between atoms: _370  and  _373
REMARK  159  A    between atoms: _373  and  _374
REMARK  160  A    between atoms: _377  and  _379
REMARK  161  A    between atoms: _379  and  _380
REMARK  162  A    between atoms: _379  and  _382
REMARK  163  A    between atoms: _382  and  _383
REMARK  164  A    between atoms: _383  and  _384
REMARK  165  A    between atoms: _389  and  _391
REMARK  166  A    between atoms: _391  and  _392
REMARK  167  A    between atoms: _391  and  _394
REMARK  168  A    between atoms: _397  and  _399
REMARK  169  A    between atoms: _399  and  _400
REMARK  170  A    between atoms: _399  and  _402
REMARK  171  A    between atoms: _402  and  _403
REMARK  172  A    between atoms: _406  and  _408
REMARK  173  A    between atoms: _408  and  _409
REMARK  174  A    between atoms: _408  and  _411
REMARK  175  A    between atoms: _411  and  _412
REMARK  176  A    between atoms: _412  and  _413
REMARK  177  A    between atoms: _415  and  _417
REMARK  178  A    between atoms: _417  and  _418
REMARK  179  A    between atoms: _417  and  _420
REMARK  180  A    between atoms: _420  and  _421
REMARK  181  A    between atoms: _421  and  _422
REMARK  182  A    between atoms: _425  and  _427
REMARK  183  A    between atoms: _427  and  _428
REMARK  184  A    between atoms: _427  and  _430
REMARK  185  A    between atoms: _430  and  _431
REMARK  186  A    between atoms: _434  and  _436
REMARK  187  A    between atoms: _436  and  _437
REMARK  188  A    between atoms: _436  and  _439
REMARK  189  A    between atoms: _439  and  _440
REMARK  190  A    between atoms: _443  and  _445
REMARK  191  A    between atoms: _445  and  _446
REMARK  192  A    between atoms: _445  and  _448
REMARK  193  A    between atoms: _448  and  _449
REMARK  194  A    between atoms: _454  and  _456
REMARK  195  A    between atoms: _456  and  _457
REMARK  196  A    between atoms: _460  and  _462
REMARK  197  A    between atoms: _462  and  _463
REMARK  198  A    between atoms: _462  and  _465
REMARK  199  A    between atoms: _465  and  _466
REMARK  200  A    between atoms: _469  and  _471
REMARK  201  A    between atoms: _471  and  _472
REMARK  202  A    between atoms: _471  and  _474
REMARK  203  A    between atoms: _477  and  _479
REMARK  204  A    between atoms: _479  and  _480
REMARK  205  A    between atoms: _479  and  _482
REMARK  206  A    between atoms: _482  and  _483
REMARK  207  A    between atoms: _483  and  _484
REMARK  208  A    between atoms: _484  and  _485
REMARK  209  A    between atoms: _494  and  _496
REMARK  210  A    between atoms: _496  and  _497
REMARK  211  A    between atoms: _496  and  _499
REMARK  212  A    between atoms: _499  and  _500
REMARK  213  A    between atoms: _503  and  _505
REMARK  214  A    between atoms: _505  and  _506
REMARK  215  A    between atoms: _505  and  _508
REMARK  216  A    between atoms: _508  and  _509
REMARK  217  A    between atoms: _512  and  _514
REMARK  218  A    between atoms: _514  and  _515
REMARK  219  A    between atoms: _514  and  _517
REMARK  220  A    between atoms: _517  and  _518
REMARK  221  A    between atoms: _518  and  _519
REMARK  222  A    between atoms: _524  and  _526
REMARK  223  A    between atoms: _526  and  _527
REMARK  224  A    between atoms: _526  and  _529
REMARK  225  A    between atoms: _532  and  _534
REMARK  226  A    between atoms: _534  and  _535
REMARK  227  A    between atoms: _534  and  _537
REMARK  228  A    between atoms: _537  and  _538
REMARK  229  A    between atoms: _541  and  _543
REMARK  230  A    between atoms: _543  and  _544
REMARK  231  A    between atoms: _543  and  _546
REMARK  232  A    between atoms: _546  and  _547
REMARK  233  A    between atoms: _547  and  _548
REMARK  234  A    between atoms: _550  and  _552
REMARK  235  A    between atoms: _552  and  _553
REMARK  236  A    between atoms: _552  and  _555
REMARK  237  A    between atoms: _555  and  _556
REMARK  238  A    between atoms: _556  and  _557
REMARK  239  A    between atoms: _560  and  _562
REMARK  240  A    between atoms: _562  and  _563
REMARK  241  A    between atoms: _562  and  _565
REMARK  242  A    between atoms: _565  and  _566
REMARK  243  A    between atoms: _569  and  _571
REMARK  244  A    between atoms: _571  and  _572
REMARK  245  A    between atoms: _571  and  _574
REMARK  246  A    between atoms: _574  and  _575
REMARK  247  A    between atoms: _575  and  _576
REMARK  248  A    between atoms: _581  and  _583
REMARK  249  A    between atoms: _583  and  _584
REMARK  250  A    between atoms: _583  and  _586
REMARK  251  A    between atoms: _586  and  _587
REMARK  252  A    between atoms: _590  and  _592
REMARK  253  A    between atoms: _592  and  _593
REMARK  254  A    between atoms: _592  and  _595
REMARK  255  A    between atoms: _595  and  _596
REMARK  256  A    between atoms: _601  and  _603
REMARK  257  A    between atoms: _603  and  _604
REMARK  258  A    between atoms: _607  and  _609
REMARK  259  A    between atoms: _609  and  _610
REMARK  260  A    between atoms: _609  and  _612
REMARK  261  A    between atoms: _612  and  _613
REMARK  262  A    between atoms: _616  and  _618
REMARK  263  A    between atoms: _618  and  _619
REMARK  264  A    between atoms: _618  and  _621
REMARK  265  A    between atoms: _624  and  _626
REMARK  266  A    between atoms: _626  and  _627
REMARK  267  A    between atoms: _626  and  _629
REMARK  268  A    between atoms: _629  and  _630
REMARK  269  A    between atoms: _630  and  _631
REMARK  270  A    between atoms: _631  and  _632
REMARK  271  A    between atoms: _641  and  _643
REMARK  272  A    between atoms: _643  and  _644
REMARK  273  A    between atoms: _643  and  _646
REMARK  274  A    between atoms: _646  and  _647
REMARK  275  A    between atoms: _650  and  _652
REMARK  276  A    between atoms: _652  and  _653
REMARK  277  A    between atoms: _652  and  _655
REMARK  278  A    between atoms: _655  and  _656
REMARK  279  A    between atoms: _659  and  _661
REMARK  280  A    between atoms: _661  and  _662
REMARK  281  A    between atoms: _661  and  _664
REMARK  282  A    between atoms: _664  and  _665
REMARK  283  A    between atoms: _665  and  _666
REMARK  284  A    between atoms: _666  and  _667
REMARK  285  A    between atoms: _676  and  _678
REMARK  286  A    between atoms: _678  and  _679
REMARK  287  A    between atoms: _678  and  _681
REMARK  288  A    between atoms: _681  and  _682
REMARK  289  A    between atoms: _682  and  _683
REMARK  290  A    between atoms: _688  and  _690
REMARK  291  A    between atoms: _690  and  _691
REMARK  292  A    between atoms: _690  and  _693
REMARK  293  A    between atoms: _696  and  _698
REMARK  294  A    between atoms: _698  and  _699
REMARK  295  A    between atoms: _698  and  _701
REMARK  296  A    between atoms: _701  and  _702
REMARK                            x       y       z     vdW  Elec       q    Type
REMARK                         _______ _______ _______ _____ _____    ______ ____
ROOT
ATOM      1  C   THR A   1       5.758  -0.084  -4.816  0.00  0.00    +0.241 C 
ATOM      2  O   THR A   1       5.157   0.035  -3.757  0.00  0.00    -0.274 OA
ATOM      3  N   ASN A   2       5.726   0.841  -5.768  0.00  0.00    -0.298 N 
ATOM      4  H   ASN A   2       6.256   0.689  -6.650  0.00  0.00    +0.150 HD
ENDROOT
BRANCH   1   5
ATOM      5  CA  THR A   1       6.583  -1.335  -5.101  0.00  0.00    +0.172 C 
BRANCH   5   6
ATOM      6  N   THR A   1       6.404  -1.766  -6.480  0.00  0.00    -0.236 NA
ATOM      7  H   THR A   1       7.216  -1.745  -7.129  0.00  0.00    +0.142 HD
ENDBRANCH   5   6
BRANCH   5   8
ATOM      8  CB  THR A   1       8.072  -1.058  -4.812  0.00  0.00    +0.135 C 
ATOM      9  CG2 THR A   1       8.243  -0.228  -3.541  0.00  0.00    +0.034 C 
BRANCH   8  10
ATOM     10  OG1 THR A   1       8.758  -2.309  -4.680  0.00  0.00    -0.383 OA
ATOM     11  HG1 THR A   1       8.669  -2.823  -5.521  0.00  0.00    +0.210 HD
ENDBRANCH   8  10
ENDBRANCH   5   8
ENDBRANCH   1   5
BRANCH   3  12
ATOM     12  CA  ASN A   2       4.957   2.066  -5.592  0.00  0.00    +0.146 C 
BRANCH  12  13
ATOM     13  C   ASN A   2       3.461   1.753  -5.558  0.00  0.00    +0.227 C 
ATOM     14  O   ASN A   2       2.708   2.366  -4.808  0.00  0.00    -0.286 OA
ENDBRANCH  12  13
BRANCH  12  15
ATOM     15  CB  ASN A   2       5.272   3.051  -6.726  0.00  0.00    +0.112 C 
BRANCH  15  16
ATOM     16  CG  ASN A   2       4.642   4.413  -6.507  0.00  0.00    +0.222 C 
ATOM     17  OD1 ASN A   2       4.558   4.894  -5.377  0.00  0.00    -0.275 OA
ATOM     18  ND2 ASN A   2       4.212   5.050  -7.590  0.00  0.00    -0.329 N 
ATOM     19 HD21 ASN A   2       3.784   5.994  -7.503  0.00  0.00    +0.145 HD
ATOM     20 HD22 ASN A   2       4.303   4.605  -8.526  0.00  0.00    +0.145 HD
ENDBRANCH  15  16
ENDBRANCH  12  15
ENDBRANCH   3  12
TORSDOF 8
REMARK  Name = ../refined-set-2016/3v2p/3v2p_pocket.pdb
REMARK  296 active torsions:
REMARK  status: ('A' for Active; 'I' for Inactive)
REMARK    1  A    between atoms: _1  and  _3
REMARK    2  A    between atoms: _3  and  _4
REMARK    3  A    between atoms: _3  and  _6
REMARK    4  A    between atoms: _6  and  _7
REMARK    5  A    between atoms: _7  and  _8
REMARK    6  A    between atoms: _10  and  _12
REMARK    7  A    between atoms: _12  and  _13
REMARK    8  A    between atoms: _12  and  _15
REMARK    9  A    between atoms: _15  and  _16
REMARK   10  A    between atoms: _16  and  _17
REMARK   11  A    between atoms: _20  and  _22
REMARK   12  A    between atoms: _22  and  _23
REMARK   13  A    between atoms: _22  and  _25
REMARK   14  A    between atoms: _25  and  _26
REMARK   15  A    between atoms: _29  and  _31
REMARK   16  A    between atoms: _31  and  _32
REMARK   17  A    between atoms: _31  and  _34
REMARK   18  A    between atoms: _34  and  _35
REMARK   19  A    between atoms: _38  and  _40
REMARK   20  A    between atoms: _40  and  _41
REMARK   21  A    between atoms: _40  and  _43
REMARK   22  A    between atoms: _43  and  _44
REMARK   23  A    between atoms: _49  and  _51
REMARK   24  A    between atoms: _51  and  _52
REMARK   25  A    between atoms: _55  and  _57
REMARK   26  A    between atoms: _57  and  _58
REMARK   27  A    between atoms: _57  and  _60
REMARK   28  A    between atoms: _60  and  _61
REMARK   29  A    between atoms: _64  and  _66
REMARK   30  A    between atoms: _66  and  _67
REMARK   31  A    between atoms: _66  and  _69
REMARK   32  A    between atoms: _72  and  _74
REMARK   33  A    between atoms: _74  and  _75
REMARK   34  A    between atoms: _74  and  _77
REMARK   35  A    between atoms: _77  and  _78
REMARK   36  A    between atoms: _78  and  _79
REMARK   37  A    between atoms: _79  and  _80
REMARK   38  A    between atoms: _89  and  _91
REMARK   39  A    between atoms: _91  and  _92
REMARK   40  A    between atoms: _91  and  _94
REMARK   41  A    between atoms: _94  and  _95
REMARK   42  A    between atoms: _98  and  _100
REMARK   43  A    between atoms: _100  and  _101
REMARK   44  A    between atoms: _100  and  _103
REMARK   45  A    between atoms: _103  and  _104
REMARK   46  A    between atoms: _107  and  _109
REMARK   47  A    between atoms: _109  and  _110
REMARK   48  A    between atoms: _109  and  _112
REMARK   49  A    between atoms: _112  and  _113
REMARK   50  A    between atoms: _113  and  _114
REMARK   51  A    between atoms: _119  and  _121
REMARK   52  A    between atoms: _121  and  _122
REMARK   53  A    between atoms: _121  and  _124
REMARK   54  A    between atoms: _127  and  _129
REMARK   55  A    between atoms: _129  and  _130
REMARK   56  A    between atoms: _129  and  _132
REMARK   57  A    between atoms: _132  and  _133
REMARK   58  A    between atoms: _136  and  _138
REMARK   59  A    between atoms: _138  and  _139
REMARK   60  A    between atoms: _138  and  _141
REMARK   61  A    between atoms: _141  and  _142
REMARK   62  A    between atoms: _142  and  _143
REMARK   63  A    between atoms: _145  and  _147
REMARK   64  A    between atoms: _147  and  _148
REMARK   65  A    between atoms: _147  and  _150
REMARK   66  A    between atoms: _150  and  _151
REMARK   67  A    between atoms: _151  and  _152
REMARK   68  A    between atoms: _155  and  _157
REMARK   69  A    between atoms: _157  and  _158
REMARK   70  A    between atoms: _157  and  _160
REMARK   71  A    between atoms: _160  and  _161
REMARK   72  A    between atoms: _164  and  _166
REMARK   73  A    between atoms: _166  and  _167
REMARK   74  A    between atoms: _166  and  _169
REMARK   75  A    between atoms: _169  and  _170
REMARK   76  A    between atoms: _173  and  _175
REMARK   77  A    between atoms: _175  and  _176
REMARK   78  A    between atoms: _175  and  _178
REMARK   79  A    between atoms: _178  and  _179
REMARK   80  A    between atoms: _184  and  _186
REMARK   81  A    between atoms: _186  and  _187
REMARK   82  A    between atoms: _190  and  _192
REMARK   83  A    between atoms: _192  and  _193
REMARK   84  A    between atoms: _192  and  _195
REMARK   85  A    between atoms: _195  and  _196
REMARK   86  A    between atoms: _199  and  _201
REMARK   87  A    between atoms: _201  and  _202
REMARK   88  A    between atoms: _201  and  _204
REMARK   89  A    between atoms: _207  and  _209
REMARK   90  A    between atoms: _209  and  _210
REMARK   91  A    between atoms: _209  and  _212
REMARK   92  A    between atoms: _212  and  _213
REMARK   93  A    between atoms: _213  and  _214
REMARK   94  A    between atoms: _214  and  _215
REMARK   95  A    between atoms: _224  and  _226
REMARK   96  A    between atoms: _226  and  _227
REMARK   97  A    between atoms: _226  and  _229
REMARK   98  A    between atoms: _229  and  _230
REMARK   99  A    between atoms: _233  and  _235
REMARK  100  A    between atoms: _235  and  _236
REMARK  101  A    between atoms: _235  and  _238
REMARK  102  A    between atoms: _238  and  _239
REMARK  103  A    between atoms: _242  and  _244
REMARK  104  A    between atoms: _244  and  _245
REMARK  105  A    between atoms: _244  and  _247
REMARK  106  A    between atoms: _247  and  _248
REMARK  107  A    between atoms: _248  and  _249
REMARK  108  A    between atoms: _254  and  _256
REMARK  109  A    between atoms: _256  and  _257
REMARK  110  A    between atoms: _256  and  _259
REMARK  111  A    between atoms: _262  and  _264
REMARK  112  A    between atoms: _264  and  _265
REMARK  113  A    between atoms: _264  and  _267
REMARK  114  A    between atoms: _267  and  _268
REMARK  115  A    between atoms: _271  and  _273
REMARK  116  A    between atoms: _273  and  _274
REMARK  117  A    between atoms: _273  and  _276
REMARK  118  A    between atoms: _276  and  _277
REMARK  119  A    between atoms: _277  and  _278
REMARK  120  A    between atoms: _280  and  _282
REMARK  121  A    between atoms: _282  and  _283
REMARK  122  A    between atoms: _282  and  _285
REMARK  123  A    between atoms: _285  and  _286
REMARK  124  A    between atoms: _286  and  _287
REMARK  125  A    between atoms: _290  and  _292
REMARK  126  A    between atoms: _292  and  _293
REMARK  127  A    between atoms: _292  and  _295
REMARK  128  A    between atoms: _295  and  _296
REMARK  129  A    between atoms: _299  and  _301
REMARK  130  A    between atoms: _301  and  _302
REMARK  131  A    between atoms: _301  and  _304
REMARK  132  A    between atoms: _304  and  _305
REMARK  133  A    between atoms: _308  and  _310
REMARK  134  A    between atoms: _310  and  _311
REMARK  135  A    between atoms: _310  and  _313
REMARK  136  A    between atoms: _313  and  _314
REMARK  137  A    between atoms: _319  and  _321
REMARK  138  A    between atoms: _321  and  _322
REMARK  139  A    between atoms: _325  and  _327
REMARK  140  A    between atoms: _327  and  _328
REMARK  141  A    between atoms: _327  and  _330
REMARK  142  A    between atoms: _330  and  _331
REMARK  143  A    between atoms: _334  and  _336
REMARK  144  A    between atoms: _336  and  _337
REMARK  145  A    between atoms: _336  and  _339
REMARK  146  A    between atoms: _342  and  _344
REMARK  147  A    between atoms: _344  and  _345
REMARK  148  A    between atoms: _344  and  _347
REMARK  149  A    between atoms: _347  and  _348
REMARK  150  A    between atoms: _348  and  _349
REMARK  151  A    between atoms: _349  and  _350
REMARK  152  A    between atoms: _359  and  _361
REMARK  153  A    between atoms: _361  and  _362
REMARK  154  A    between atoms: _361  and  _364
REMARK  155  A    between atoms: _364  and  _365
REMARK  156  A    between atoms: _368  and  _370
REMARK  157  A    between atoms: _370  and  _371
REMARK  158  A    between atoms: _370  and  _373
REMARK  159  A    between atoms: _373  and  _374
REMARK  160  A    between atoms: _377  and  _379
REMARK  161  A    between atoms: _379  and  _380
REMARK  162  A    between atoms: _379  and  _382
REMARK  163  A    between atoms: _382  and  _383
REMARK  164  A    between atoms: _383  and  _384
REMARK  165  A    between atoms: _389  and  _391
REMARK  166  A    between atoms: _391  and  _392
REMARK  167  A    between atoms: _391  and  _394
REMARK  168  A    between atoms: _397  and  _399
REMARK  169  A    between atoms: _399  and  _400
REMARK  170  A    between atoms: _399  and  _402
REMARK  171  A    between atoms: _402  and  _403
REMARK  172  A    between atoms: _406  and  _408
REMARK  173  A    between atoms: _408  and  _409
REMARK  174  A    between atoms: _408  and  _411
REMARK  175  A    between atoms: _411  and  _412
REMARK  176  A    between atoms: _412  and  _413
REMARK  177  A    between atoms: _415  and  _417
REMARK  178  A    between atoms: _417  and  _418
REMARK  179  A    between atoms: _417  and  _420
REMARK  180  A    between atoms: _420  and  _421
REMARK  181  A    between atoms: _421  and  _422
REMARK  182  A    between atoms: _425  and  _427
REMARK  183  A    between atoms: _427  and  _428
REMARK  184  A    between atoms: _427  and  _430
REMARK  185  A    between atoms: _430  and  _431
REMARK  186  A    between atoms: _434  and  _436
REMARK  187  A    between atoms: _436  and  _437
REMARK  188  A    between atoms: _436  and  _439
REMARK  189  A    between atoms: _439  and  _440
REMARK  190  A    between atoms: _443  and  _445
REMARK  191  A    between atoms: _445  and  _446
REMARK  192  A    between atoms: _445  and  _448
REMARK  193  A    between atoms: _448  and  _449
REMARK  194  A    between atoms: _454  and  _456
REMARK  195  A    between atoms: _456  and  _457
REMARK  196  A    between atoms: _460  and  _462
REMARK  197  A    between atoms: _462  and  _463
REMARK  198  A    between atoms: _462  and  _465
REMARK  199  A    between atoms: _465  and  _466
REMARK  200  A    between atoms: _469  and  _471
REMARK  201  A    between atoms: _471  and  _472
REMARK  202  A    between atoms: _471  and  _474
REMARK  203  A    between atoms: _477  and  _479
REMARK  204  A    between atoms: _479  and  _480
REMARK  205  A    between atoms: _479  and  _482
REMARK  206  A    between atoms: _482  and  _483
REMARK  207  A    between atoms: _483  and  _484
REMARK  208  A    between atoms: _484  and  _485
REMARK  209  A    between atoms: _494  and  _496
REMARK  210  A    between atoms: _496  and  _497
REMARK  211  A    between atoms: _496  and  _499
REMARK  212  A    between atoms: _499  and  _500
REMARK  213  A    between atoms: _503  and  _505
REMARK  214  A    between atoms: _505  and  _506
REMARK  215  A    between atoms: _505  and  _508
REMARK  216  A    between atoms: _508  and  _509
REMARK  217  A    between atoms: _512  and  _514
REMARK  218  A    between atoms: _514  and  _515
REMARK  219  A    between atoms: _514  and  _517
REMARK  220  A    between atoms: _517  and  _518
REMARK  221  A    between atoms: _518  and  _519
REMARK  222  A    between atoms: _524  and  _526
REMARK  223  A    between atoms: _526  and  _527
REMARK  224  A    between atoms: _526  and  _529
REMARK  225  A    between atoms: _532  and  _534
REMARK  226  A    between atoms: _534  and  _535
REMARK  227  A    between atoms: _534  and  _537
REMARK  228  A    between atoms: _537  and  _538
REMARK  229  A    between atoms: _541  and  _543
REMARK  230  A    between atoms: _543  and  _544
REMARK  231  A    between atoms: _543  and  _546
REMARK  232  A    between atoms: _546  and  _547
REMARK  233  A    between atoms: _547  and  _548
REMARK  234  A    between atoms: _550  and  _552
REMARK  235  A    between atoms: _552  and  _553
REMARK  236  A    between atoms: _552  and  _555
REMARK  237  A    between atoms: _555  and  _556
REMARK  238  A    between atoms: _556  and  _557
REMARK  239  A    between atoms: _560  and  _562
REMARK  240  A    between atoms: _562  and  _563
REMARK  241  A    between atoms: _562  and  _565
REMARK  242  A    between atoms: _565  and  _566
REMARK  243  A    between atoms: _569  and  _571
REMARK  244  A    between atoms: _571  and  _572
REMARK  245  A    between atoms: _571  and  _574
REMARK  246  A    between atoms: _574  and  _575
REMARK  247  A    between atoms: _575  and  _576
REMARK  248  A    between atoms: _581  and  _583
REMARK  249  A    between atoms: _583  and  _584
REMARK  250  A    between atoms: _583  and  _586
REMARK  251  A    between atoms: _586  and  _587
REMARK  252  A    between atoms: _590  and  _592
REMARK  253  A    between atoms: _592  and  _593
REMARK  254  A    between atoms: _592  and  _595
REMARK  255  A    between atoms: _595  and  _596
REMARK  256  A    between atoms: _601  and  _603
REMARK  257  A    between atoms: _603  and  _604
REMARK  258  A    between atoms: _607  and  _609
REMARK  259  A    between atoms: _609  and  _610
REMARK  260  A    between atoms: _609  and  _612
REMARK  261  A    between atoms: _612  and  _613
REMARK  262  A    between atoms: _616  and  _618
REMARK  263  A    between atoms: _618  and  _619
REMARK  264  A    between atoms: _618  and  _621
REMARK  265  A    between atoms: _624  and  _626
REMARK  266  A    between atoms: _626  and  _627
REMARK  267  A    between atoms: _626  and  _629
REMARK  268  A    between atoms: _629  and  _630
REMARK  269  A    between atoms: _630  and  _631
REMARK  270  A    between atoms: _631  and  _632
REMARK  271  A    between atoms: _641  and  _643
REMARK  272  A    between atoms: _643  and  _644
REMARK  273  A    between atoms: _643  and  _646
REMARK  274  A    between atoms: _646  and  _647
REMARK  275  A    between atoms: _650  and  _652
REMARK  276  A    between atoms: _652  and  _653
REMARK  277  A    between atoms: _652  and  _655
REMARK  278  A    between atoms: _655  and  _656
REMARK  279  A    between atoms: _659  and  _661
REMARK  280  A    between atoms: _661  and  _662
REMARK  281  A    between atoms: _661  and  _664
REMARK  282  A    between atoms: _664  and  _665
REMARK  283  A    between atoms: _665  and  _666
REMARK  284  A    between atoms: _666  and  _667
REMARK  285  A    between atoms: _676  and  _678
REMARK  286  A    between atoms: _678  and  _679
REMARK  287  A    between atoms: _678  and  _681
REMARK  288  A    between atoms: _681  and  _682
REMARK  289  A    between atoms: _682  and  _683
REMARK  290  A    between atoms: _688  and  _690
REMARK  291  A    between atoms: _690  and  _691
REMARK  292  A    between atoms: _690  and  _693
REMARK  293  A    between atoms: _696  and  _698
REMARK  294  A    between atoms: _698  and  _699
REMARK  295  A    between atoms: _698  and  _701
REMARK  296  A    between atoms: _701  and  _702
REMARK                            x       y       z     vdW  Elec       q    Type
REMARK                         _______ _______ _______ _____ _____    ______ ____
ROOT
ATOM      1  C   ALA A   1       1.728  -0.711  -2.122  0.00  0.00    +0.238 C 
ATOM      2  O   ALA A   1       0.890  -0.810  -1.228  0.00  0.00    -0.274 OA
ATOM      3  N   LEU A   2       2.626   0.268  -2.169  0.00  0.00    -0.298 N 
ATOM      4  H   LEU A   2       3.311   0.285  -2.952  0.00  0.00    +0.150 HD
ENDROOT
BRANCH   1   5
ATOM      5  CA  ALA A   1       1.786  -1.734  -3.249  0.00  0.00    +0.145 C 
ATOM      6  CB  ALA A   1       2.859  -2.791  -2.949  0.00  0.00    +0.028 C 
BRANCH   5   7
ATOM      7  N   ALA A   1       2.060  -1.085  -4.528  0.00  0.00    -0.238 NA
ATOM      8  H   ALA A   1       2.935  -1.321  -5.038  0.00  0.00    +0.142 HD
ENDBRANCH   5   7
ENDBRANCH   1   5
BRANCH   3   9
ATOM      9  CA  LEU A   2       2.684   1.322  -1.158  0.00  0.00    +0.137 C 
BRANCH   9  10
ATOM     10  C   LEU A   2       1.431   2.190  -1.177  0.00  0.00    +0.227 C 
ATOM     11  O   LEU A   2       0.968   2.654  -0.132  0.00  0.00    -0.286 OA
ENDBRANCH   9  10
BRANCH   9  12
ATOM     12  CB  LEU A   2       3.897   2.222  -1.393  0.00  0.00    +0.028 C 
BRANCH  12  13
ATOM     13  CG  LEU A   2       4.952   2.273  -0.290  0.00  0.00    +0.002 C 
ATOM     14  CD2 LEU A   2       4.300   2.568   1.064  0.00  0.00    +0.000 C 
ATOM     15  CD1 LEU A   2       5.673   0.948  -0.254  0.00  0.00    +0.000 C 
ENDBRANCH  12  13
ENDBRANCH   9  12
ENDBRANCH   3   9
TORSDOF 6
REMARK  Name = ../refined-set-2016/3v2p/3v2p_pocket.pdb
REMARK  296 active torsions:
REMARK  status: ('A' for Active; 'I' for Inactive)
REMARK    1  A    between atoms: _1  and  _3
REMARK    2  A    between atoms: _3  and  _4
REMARK    3  A    between atoms: _3  and  _6
REMARK    4  A    between atoms: _6  and  _7
REMARK    5  A    between atoms: _7  and  _8
REMARK    6  A    between atoms: _10  and  _12
REMARK    7  A    between atoms: _12  and  _13
REMARK    8  A    between atoms: _12  and  _15
REMARK    9  A    between atoms: _15  and  _16
REMARK   10  A    between atoms: _16  and  _17
REMARK   11  A    between atoms: _20  and  _22
REMARK   12  A    between atoms: _22  and  _23
REMARK   13  A    between atoms: _22  and  _25
REMARK   14  A    between atoms: _25  and  _26
REMARK   15  A    between atoms: _29  and  _31
REMARK   16  A    between atoms: _31  and  _32
REMARK   17  A    between atoms: _31  and  _34
REMARK   18  A    between atoms: _34  and  _35
REMARK   19  A    between atoms: _38  and  _40
REMARK   20  A    between atoms: _40  and  _41
REMARK   21  A    between atoms: _40  and  _43
REMARK   22  A    between atoms: _43  and  _44
REMARK   23  A    between atoms: _49  and  _51
REMARK   24  A    between atoms: _51  and  _52
REMARK   25  A    between atoms: _55  and  _57
REMARK   26  A    between atoms: _57  and  _58
REMARK   27  A    between atoms: _57  and  _60
REMARK   28  A    between atoms: _60  and  _61
REMARK   29  A    between atoms: _64  and  _66
REMARK   30  A    between atoms: _66  and  _67
REMARK   31  A    between atoms: _66  and  _69
REMARK   32  A    between atoms: _72  and  _74
REMARK   33  A    between atoms: _74  and  _75
REMARK   34  A    between atoms: _74  and  _77
REMARK   35  A    between atoms: _77  and  _78
REMARK   36  A    between atoms: _78  and  _79
REMARK   37  A    between atoms: _79  and  _80
REMARK   38  A    between atoms: _89  and  _91
REMARK   39  A    between atoms: _91  and  _92
REMARK   40  A    between atoms: _91  and  _94
REMARK   41  A    between atoms: _94  and  _95
REMARK   42  A    between atoms: _98  and  _100
REMARK   43  A    between atoms: _100  and  _101
REMARK   44  A    between atoms: _100  and  _103
REMARK   45  A    between atoms: _103  and  _104
REMARK   46  A    between atoms: _107  and  _109
REMARK   47  A    between atoms: _109  and  _110
REMARK   48  A    between atoms: _109  and  _112
REMARK   49  A    between atoms: _112  and  _113
REMARK   50  A    between atoms: _113  and  _114
REMARK   51  A    between atoms: _119  and  _121
REMARK   52  A    between atoms: _121  and  _122
REMARK   53  A    between atoms: _121  and  _124
REMARK   54  A    between atoms: _127  and  _129
REMARK   55  A    between atoms: _129  and  _130
REMARK   56  A    between atoms: _129  and  _132
REMARK   57  A    between atoms: _132  and  _133
REMARK   58  A    between atoms: _136  and  _138
REMARK   59  A    between atoms: _138  and  _139
REMARK   60  A    between atoms: _138  and  _141
REMARK   61  A    between atoms: _141  and  _142
REMARK   62  A    between atoms: _142  and  _143
REMARK   63  A    between atoms: _145  and  _147
REMARK   64  A    between atoms: _147  and  _148
REMARK   65  A    between atoms: _147  and  _150
REMARK   66  A    between atoms: _150  and  _151
REMARK   67  A    between atoms: _151  and  _152
REMARK   68  A    between atoms: _155  and  _157
REMARK   69  A    between atoms: _157  and  _158
REMARK   70  A    between atoms: _157  and  _160
REMARK   71  A    between atoms: _160  and  _161
REMARK   72  A    between atoms: _164  and  _166
REMARK   73  A    between atoms: _166  and  _167
REMARK   74  A    between atoms: _166  and  _169
REMARK   75  A    between atoms: _169  and  _170
REMARK   76  A    between atoms: _173  and  _175
REMARK   77  A    between atoms: _175  and  _176
REMARK   78  A    between atoms: _175  and  _178
REMARK   79  A    between atoms: _178  and  _179
REMARK   80  A    between atoms: _184  and  _186
REMARK   81  A    between atoms: _186  and  _187
REMARK   82  A    between atoms: _190  and  _192
REMARK   83  A    between atoms: _192  and  _193
REMARK   84  A    between atoms: _192  and  _195
REMARK   85  A    between atoms: _195  and  _196
REMARK   86  A    between atoms: _199  and  _201
REMARK   87  A    between atoms: _201  and  _202
REMARK   88  A    between atoms: _201  and  _204
REMARK   89  A    between atoms: _207  and  _209
REMARK   90  A    between atoms: _209  and  _210
REMARK   91  A    between atoms: _209  and  _212
REMARK   92  A    between atoms: _212  and  _213
REMARK   93  A    between atoms: _213  and  _214
REMARK   94  A    between atoms: _214  and  _215
REMARK   95  A    between atoms: _224  and  _226
REMARK   96  A    between atoms: _226  and  _227
REMARK   97  A    between atoms: _226  and  _229
REMARK   98  A    between atoms: _229  and  _230
REMARK   99  A    between atoms: _233  and  _235
REMARK  100  A    between atoms: _235  and  _236
REMARK  101  A    between atoms: _235  and  _238
REMARK  102  A    between atoms: _238  and  _239
REMARK  103  A    between atoms: _242  and  _244
REMARK  104  A    between atoms: _244  and  _245
REMARK  105  A    between atoms: _244  and  _247
REMARK  106  A    between atoms: _247  and  _248
REMARK  107  A    between atoms: _248  and  _249
REMARK  108  A    between atoms: _254  and  _256
REMARK  109  A    between atoms: _256  and  _257
REMARK  110  A    between atoms: _256  and  _259
REMARK  111  A    between atoms: _262  and  _264
REMARK  112  A    between atoms: _264  and  _265
REMARK  113  A    between atoms: _264  and  _267
REMARK  114  A    between atoms: _267  and  _268
REMARK  115  A    between atoms: _271  and  _273
REMARK  116  A    between atoms: _273  and  _274
REMARK  117  A    between atoms: _273  and  _276
REMARK  118  A    between atoms: _276  and  _277
REMARK  119  A    between atoms: _277  and  _278
REMARK  120  A    between atoms: _280  and  _282
REMARK  121  A    between atoms: _282  and  _283
REMARK  122  A    between atoms: _282  and  _285
REMARK  123  A    between atoms: _285  and  _286
REMARK  124  A    between atoms: _286  and  _287
REMARK  125  A    between atoms: _290  and  _292
REMARK  126  A    between atoms: _292  and  _293
REMARK  127  A    between atoms: _292  and  _295
REMARK  128  A    between atoms: _295  and  _296
REMARK  129  A    between atoms: _299  and  _301
REMARK  130  A    between atoms: _301  and  _302
REMARK  131  A    between atoms: _301  and  _304
REMARK  132  A    between atoms: _304  and  _305
REMARK  133  A    between atoms: _308  and  _310
REMARK  134  A    between atoms: _310  and  _311
REMARK  135  A    between atoms: _310  and  _313
REMARK  136  A    between atoms: _313  and  _314
REMARK  137  A    between atoms: _319  and  _321
REMARK  138  A    between atoms: _321  and  _322
REMARK  139  A    between atoms: _325  and  _327
REMARK  140  A    between atoms: _327  and  _328
REMARK  141  A    between atoms: _327  and  _330
REMARK  142  A    between atoms: _330  and  _331
REMARK  143  A    between atoms: _334  and  _336
REMARK  144  A    between atoms: _336  and  _337
REMARK  145  A    between atoms: _336  and  _339
REMARK  146  A    between atoms: _342  and  _344
REMARK  147  A    between atoms: _344  and  _345
REMARK  148  A    between atoms: _344  and  _347
REMARK  149  A    between atoms: _347  and  _348
REMARK  150  A    between atoms: _348  and  _349
REMARK  151  A    between atoms: _349  and  _350
REMARK  152  A    between atoms: _359  and  _361
REMARK  153  A    between atoms: _361  and  _362
REMARK  154  A    between atoms: _361  and  _364
REMARK  155  A    between atoms: _364  and  _365
REMARK  156  A    between atoms: _368  and  _370
REMARK  157  A    between atoms: _370  and  _371
REMARK  158  A    between atoms: _370  and  _373
REMARK  159  A    between atoms: _373  and  _374
REMARK  160  A    between atoms: _377  and  _379
REMARK  161  A    between atoms: _379  and  _380
REMARK  162  A    between atoms: _379  and  _382
REMARK  163  A    between atoms: _382  and  _383
REMARK  164  A    between atoms: _383  and  _384
REMARK  165  A    between atoms: _389  and  _391
REMARK  166  A    between atoms: _391  and  _392
REMARK  167  A    between atoms: _391  and  _394
REMARK  168  A    between atoms: _397  and  _399
REMARK  169  A    between atoms: _399  and  _400
REMARK  170  A    between atoms: _399  and  _402
REMARK  171  A    between atoms: _402  and  _403
REMARK  172  A    between atoms: _406  and  _408
REMARK  173  A    between atoms: _408  and  _409
REMARK  174  A    between atoms: _408  and  _411
REMARK  175  A    between atoms: _411  and  _412
REMARK  176  A    between atoms: _412  and  _413
REMARK  177  A    between atoms: _415  and  _417
REMARK  178  A    between atoms: _417  and  _418
REMARK  179  A    between atoms: _417  and  _420
REMARK  180  A    between atoms: _420  and  _421
REMARK  181  A    between atoms: _421  and  _422
REMARK  182  A    between atoms: _425  and  _427
REMARK  183  A    between atoms: _427  and  _428
REMARK  184  A    between atoms: _427  and  _430
REMARK  185  A    between atoms: _430  and  _431
REMARK  186  A    between atoms: _434  and  _436
REMARK  187  A    between atoms: _436  and  _437
REMARK  188  A    between atoms: _436  and  _439
REMARK  189  A    between atoms: _439  and  _440
REMARK  190  A    between atoms: _443  and  _445
REMARK  191  A    between atoms: _445  and  _446
REMARK  192  A    between atoms: _445  and  _448
REMARK  193  A    between atoms: _448  and  _449
REMARK  194  A    between atoms: _454  and  _456
REMARK  195  A    between atoms: _456  and  _457
REMARK  196  A    between atoms: _460  and  _462
REMARK  197  A    between atoms: _462  and  _463
REMARK  198  A    between atoms: _462  and  _465
REMARK  199  A    between atoms: _465  and  _466
REMARK  200  A    between atoms: _469  and  _471
REMARK  201  A    between atoms: _471  and  _472
REMARK  202  A    between atoms: _471  and  _474
REMARK  203  A    between atoms: _477  and  _479
REMARK  204  A    between atoms: _479  and  _480
REMARK  205  A    between atoms: _479  and  _482
REMARK  206  A    between atoms: _482  and  _483
REMARK  207  A    between atoms: _483  and  _484
REMARK  208  A    between atoms: _484  and  _485
REMARK  209  A    between atoms: _494  and  _496
REMARK  210  A    between atoms: _496  and  _497
REMARK  211  A    between atoms: _496  and  _499
REMARK  212  A    between atoms: _499  and  _500
REMARK  213  A    between atoms: _503  and  _505
REMARK  214  A    between atoms: _505  and  _506
REMARK  215  A    between atoms: _505  and  _508
REMARK  216  A    between atoms: _508  and  _509
REMARK  217  A    between atoms: _512  and  _514
REMARK  218  A    between atoms: _514  and  _515
REMARK  219  A    between atoms: _514  and  _517
REMARK  220  A    between atoms: _517  and  _518
REMARK  221  A    between atoms: _518  and  _519
REMARK  222  A    between atoms: _524  and  _526
REMARK  223  A    between atoms: _526  and  _527
REMARK  224  A    between atoms: _526  and  _529
REMARK  225  A    between atoms: _532  and  _534
REMARK  226  A    between atoms: _534  and  _535
REMARK  227  A    between atoms: _534  and  _537
REMARK  228  A    between atoms: _537  and  _538
REMARK  229  A    between atoms: _541  and  _543
REMARK  230  A    between atoms: _543  and  _544
REMARK  231  A    between atoms: _543  and  _546
REMARK  232  A    between atoms: _546  and  _547
REMARK  233  A    between atoms: _547  and  _548
REMARK  234  A    between atoms: _550  and  _552
REMARK  235  A    between atoms: _552  and  _553
REMARK  236  A    between atoms: _552  and  _555
REMARK  237  A    between atoms: _555  and  _556
REMARK  238  A    between atoms: _556  and  _557
REMARK  239  A    between atoms: _560  and  _562
REMARK  240  A    between atoms: _562  and  _563
REMARK  241  A    between atoms: _562  and  _565
REMARK  242  A    between atoms: _565  and  _566
REMARK  243  A    between atoms: _569  and  _571
REMARK  244  A    between atoms: _571  and  _572
REMARK  245  A    between atoms: _571  and  _574
REMARK  246  A    between atoms: _574  and  _575
REMARK  247  A    between atoms: _575  and  _576
REMARK  248  A    between atoms: _581  and  _583
REMARK  249  A    between atoms: _583  and  _584
REMARK  250  A    between atoms: _583  and  _586
REMARK  251  A    between atoms: _586  and  _587
REMARK  252  A    between atoms: _590  and  _592
REMARK  253  A    between atoms: _592  and  _593
REMARK  254  A    between atoms: _592  and  _595
REMARK  255  A    between atoms: _595  and  _596
REMARK  256  A    between atoms: _601  and  _603
REMARK  257  A    between atoms: _603  and  _604
REMARK  258  A    between atoms: _607  and  _609
REMARK  259  A    between atoms: _609  and  _610
REMARK  260  A    between atoms: _609  and  _612
REMARK  261  A    between atoms: _612  and  _613
REMARK  262  A    between atoms: _616  and  _618
REMARK  263  A    between atoms: _618  and  _619
REMARK  264  A    between atoms: _618  and  _621
REMARK  265  A    between atoms: _624  and  _626
REMARK  266  A    between atoms: _626  and  _627
REMARK  267  A    between atoms: _626  and  _629
REMARK  268  A    between atoms: _629  and  _630
REMARK  269  A    between atoms: _630  and  _631
REMARK  270  A    between atoms: _631  and  _632
REMARK  271  A    between atoms: _641  and  _643
REMARK  272  A    between atoms: _643  and  _644
REMARK  273  A    between atoms: _643  and  _646
REMARK  274  A    between atoms: _646  and  _647
REMARK  275  A    between atoms: _650  and  _652
REMARK  276  A    between atoms: _652  and  _653
REMARK  277  A    between atoms: _652  and  _655
REMARK  278  A    between atoms: _655  and  _656
REMARK  279  A    between atoms: _659  and  _661
REMARK  280  A    between atoms: _661  and  _662
REMARK  281  A    between atoms: _661  and  _664
REMARK  282  A    between atoms: _664  and  _665
REMARK  283  A    between atoms: _665  and  _666
REMARK  284  A    between atoms: _666  and  _667
REMARK  285  A    between atoms: _676  and  _678
REMARK  286  A    between atoms: _678  and  _679
REMARK  287  A    between atoms: _678  and  _681
REMARK  288  A    between atoms: _681  and  _682
REMARK  289  A    between atoms: _682  and  _683
REMARK  290  A    between atoms: _688  and  _690
REMARK  291  A    between atoms: _690  and  _691
REMARK  292  A    between atoms: _690  and  _693
REMARK  293  A    between atoms: _696  and  _698
REMARK  294  A    between atoms: _698  and  _699
REMARK  295  A    between atoms: _698  and  _701
REMARK  296  A    between atoms: _701  and  _702
REMARK                            x       y       z     vdW  Elec       q    Type
REMARK                         _______ _______ _______ _____ _____    ______ ____
ROOT
ATOM      1  CA  ARG A   2      -1.348   4.064   2.386  0.00  0.00    +0.137 C 
ENDROOT
BRANCH   1   4
ATOM      2  C   VAL A   1      -1.197   1.655   2.693  0.00  0.00    +0.238 C 
ATOM      3  O   VAL A   1      -1.749   1.708   3.793  0.00  0.00    -0.274 OA
ATOM      4  N   ARG A   2      -0.968   2.730   1.951  0.00  0.00    -0.298 N 
ATOM      5  H   ARG A   2      -0.502   2.615   1.029  0.00  0.00    +0.150 HD
BRANCH   2   6
ATOM      6  CA  VAL A   1      -0.746   0.328   2.094  0.00  0.00    +0.145 C 
BRANCH   6   7
ATOM      7  CB  VAL A   1       0.771   0.136   2.357  0.00  0.00    +0.025 C 
ATOM      8  CG2 VAL A   1       1.107   0.452   3.802  0.00  0.00    +0.002 C 
ATOM      9  CG1 VAL A   1       1.162  -1.300   2.049  0.00  0.00    +0.002 C 
ENDBRANCH   6   7
BRANCH   6  10
ATOM     10  N   VAL A   1      -1.045   0.310   0.660  0.00  0.00    -0.238 NA
ATOM     11  H   VAL A   1      -0.268   0.216  -0.024  0.00  0.00    +0.142 HD
ENDBRANCH   6  10
ENDBRANCH   2   6
ENDBRANCH   1   4
BRANCH   1  12
ATOM     12  C   ARG A   2      -2.867   4.177   2.530  0.00  0.00    +0.227 C 
ATOM     13  O   ARG A   2      -3.368   4.678   3.538  0.00  0.00    -0.286 OA
ENDBRANCH   1  12
BRANCH   1  14
ATOM     14  CB  ARG A   2      -0.827   5.073   1.363  0.00  0.00    +0.031 C 
BRANCH  14  15
ATOM     15  CG  ARG A   2      -0.954   6.531   1.713  0.00  0.00    +0.045 C 
BRANCH  15  16
ATOM     16  CD  ARG A   2      -0.472   7.318   0.493  0.00  0.00    +0.174 C 
BRANCH  16  17
ATOM     17  NE  ARG A   2       0.097   8.609   0.834  0.00  0.00    -0.265 N 
ATOM     18  HE  ARG A   2       0.050   8.916   1.826  0.00  0.00    +0.259 HD
ATOM     19  CZ  ARG A   2       0.674   9.422  -0.043  0.00  0.00    +0.342 C 
ATOM     20  NH2 ARG A   2       1.168  10.580   0.361  0.00  0.00    -0.292 N 
ATOM     21 HH21 ARG A   2       1.104  10.852   1.363  0.00  0.00    +0.255 HD
ATOM     22 HH22 ARG A   2       1.621  11.219  -0.323  0.00  0.00    +0.255 HD
ATOM     23  NH1 ARG A   2       0.758   9.072  -1.319  0.00  0.00    -0.292 N 
ATOM     24 HH11 ARG A   2       0.372   8.159  -1.634  0.00  0.00    +0.255 HD
ATOM     25 HH12 ARG A   2       1.210   9.710  -2.005  0.00  0.00    +0.255 HD
ENDBRANCH  16  17
ENDBRANCH  15  16
ENDBRANCH  14  15
ENDBRANCH   1  14
TORSDOF 9
REMARK  Name = ../refined-set-2016/3v2p/3v2p_pocket.pdb
REMARK  296 active torsions:
REMARK  status: ('A' for Active; 'I' for Inactive)
REMARK    1  A    between atoms: _1  and  _3
REMARK    2  A    between atoms: _3  and  _4
REMARK    3  A    between atoms: _3  and  _6
REMARK    4  A    between atoms: _6  and  _7
REMARK    5  A    between atoms: _7  and  _8
REMARK    6  A    between atoms: _10  and  _12
REMARK    7  A    between atoms: _12  and  _13
REMARK    8  A    between atoms: _12  and  _15
REMARK    9  A    between atoms: _15  and  _16
REMARK   10  A    between atoms: _16  and  _17
REMARK   11  A    between atoms: _20  and  _22
REMARK   12  A    between atoms: _22  and  _23
REMARK   13  A    between atoms: _22  and  _25
REMARK   14  A    between atoms: _25  and  _26
REMARK   15  A    between atoms: _29  and  _31
REMARK   16  A    between atoms: _31  and  _32
REMARK   17  A    between atoms: _31  and  _34
REMARK   18  A    between atoms: _34  and  _35
REMARK   19  A    between atoms: _38  and  _40
REMARK   20  A    between atoms: _40  and  _41
REMARK   21  A    between atoms: _40  and  _43
REMARK   22  A    between atoms: _43  and  _44
REMARK   23  A    between atoms: _49  and  _51
REMARK   24  A    between atoms: _51  and  _52
REMARK   25  A    between atoms: _55  and  _57
REMARK   26  A    between atoms: _57  and  _58
REMARK   27  A    between atoms: _57  and  _60
REMARK   28  A    between atoms: _60  and  _61
REMARK   29  A    between atoms: _64  and  _66
REMARK   30  A    between atoms: _66  and  _67
REMARK   31  A    between atoms: _66  and  _69
REMARK   32  A    between atoms: _72  and  _74
REMARK   33  A    between atoms: _74  and  _75
REMARK   34  A    between atoms: _74  and  _77
REMARK   35  A    between atoms: _77  and  _78
REMARK   36  A    between atoms: _78  and  _79
REMARK   37  A    between atoms: _79  and  _80
REMARK   38  A    between atoms: _89  and  _91
REMARK   39  A    between atoms: _91  and  _92
REMARK   40  A    between atoms: _91  and  _94
REMARK   41  A    between atoms: _94  and  _95
REMARK   42  A    between atoms: _98  and  _100
REMARK   43  A    between atoms: _100  and  _101
REMARK   44  A    between atoms: _100  and  _103
REMARK   45  A    between atoms: _103  and  _104
REMARK   46  A    between atoms: _107  and  _109
REMARK   47  A    between atoms: _109  and  _110
REMARK   48  A    between atoms: _109  and  _112
REMARK   49  A    between atoms: _112  and  _113
REMARK   50  A    between atoms: _113  and  _114
REMARK   51  A    between atoms: _119  and  _121
REMARK   52  A    between atoms: _121  and  _122
REMARK   53  A    between atoms: _121  and  _124
REMARK   54  A    between atoms: _127  and  _129
REMARK   55  A    between atoms: _129  and  _130
REMARK   56  A    between atoms: _129  and  _132
REMARK   57  A    between atoms: _132  and  _133
REMARK   58  A    between atoms: _136  and  _138
REMARK   59  A    between atoms: _138  and  _139
REMARK   60  A    between atoms: _138  and  _141
REMARK   61  A    between atoms: _141  and  _142
REMARK   62  A    between atoms: _142  and  _143
REMARK   63  A    between atoms: _145  and  _147
REMARK   64  A    between atoms: _147  and  _148
REMARK   65  A    between atoms: _147  and  _150
REMARK   66  A    between atoms: _150  and  _151
REMARK   67  A    between atoms: _151  and  _152
REMARK   68  A    between atoms: _155  and  _157
REMARK   69  A    between atoms: _157  and  _158
REMARK   70  A    between atoms: _157  and  _160
REMARK   71  A    between atoms: _160  and  _161
REMARK   72  A    between atoms: _164  and  _166
REMARK   73  A    between atoms: _166  and  _167
REMARK   74  A    between atoms: _166  and  _169
REMARK   75  A    between atoms: _169  and  _170
REMARK   76  A    between atoms: _173  and  _175
REMARK   77  A    between atoms: _175  and  _176
REMARK   78  A    between atoms: _175  and  _178
REMARK   79  A    between atoms: _178  and  _179
REMARK   80  A    between atoms: _184  and  _186
REMARK   81  A    between atoms: _186  and  _187
REMARK   82  A    between atoms: _190  and  _192
REMARK   83  A    between atoms: _192  and  _193
REMARK   84  A    between atoms: _192  and  _195
REMARK   85  A    between atoms: _195  and  _196
REMARK   86  A    between atoms: _199  and  _201
REMARK   87  A    between atoms: _201  and  _202
REMARK   88  A    between atoms: _201  and  _204
REMARK   89  A    between atoms: _207  and  _209
REMARK   90  A    between atoms: _209  and  _210
REMARK   91  A    between atoms: _209  and  _212
REMARK   92  A    between atoms: _212  and  _213
REMARK   93  A    between atoms: _213  and  _214
REMARK   94  A    between atoms: _214  and  _215
REMARK   95  A    between atoms: _224  and  _226
REMARK   96  A    between atoms: _226  and  _227
REMARK   97  A    between atoms: _226  and  _229
REMARK   98  A    between atoms: _229  and  _230
REMARK   99  A    between atoms: _233  and  _235
REMARK  100  A    between atoms: _235  and  _236
REMARK  101  A    between atoms: _235  and  _238
REMARK  102  A    between atoms: _238  and  _239
REMARK  103  A    between atoms: _242  and  _244
REMARK  104  A    between atoms: _244  and  _245
REMARK  105  A    between atoms: _244  and  _247
REMARK  106  A    between atoms: _247  and  _248
REMARK  107  A    between atoms: _248  and  _249
REMARK  108  A    between atoms: _254  and  _256
REMARK  109  A    between atoms: _256  and  _257
REMARK  110  A    between atoms: _256  and  _259
REMARK  111  A    between atoms: _262  and  _264
REMARK  112  A    between atoms: _264  and  _265
REMARK  113  A    between atoms: _264  and  _267
REMARK  114  A    between atoms: _267  and  _268
REMARK  115  A    between atoms: _271  and  _273
REMARK  116  A    between atoms: _273  and  _274
REMARK  117  A    between atoms: _273  and  _276
REMARK  118  A    between atoms: _276  and  _277
REMARK  119  A    between atoms: _277  and  _278
REMARK  120  A    between atoms: _280  and  _282
REMARK  121  A    between atoms: _282  and  _283
REMARK  122  A    between atoms: _282  and  _285
REMARK  123  A    between atoms: _285  and  _286
REMARK  124  A    between atoms: _286  and  _287
REMARK  125  A    between atoms: _290  and  _292
REMARK  126  A    between atoms: _292  and  _293
REMARK  127  A    between atoms: _292  and  _295
REMARK  128  A    between atoms: _295  and  _296
REMARK  129  A    between atoms: _299  and  _301
REMARK  130  A    between atoms: _301  and  _302
REMARK  131  A    between atoms: _301  and  _304
REMARK  132  A    between atoms: _304  and  _305
REMARK  133  A    between atoms: _308  and  _310
REMARK  134  A    between atoms: _310  and  _311
REMARK  135  A    between atoms: _310  and  _313
REMARK  136  A    between atoms: _313  and  _314
REMARK  137  A    between atoms: _319  and  _321
REMARK  138  A    between atoms: _321  and  _322
REMARK  139  A    between atoms: _325  and  _327
REMARK  140  A    between atoms: _327  and  _328
REMARK  141  A    between atoms: _327  and  _330
REMARK  142  A    between atoms: _330  and  _331
REMARK  143  A    between atoms: _334  and  _336
REMARK  144  A    between atoms: _336  and  _337
REMARK  145  A    between atoms: _336  and  _339
REMARK  146  A    between atoms: _342  and  _344
REMARK  147  A    between atoms: _344  and  _345
REMARK  148  A    between atoms: _344  and  _347
REMARK  149  A    between atoms: _347  and  _348
REMARK  150  A    between atoms: _348  and  _349
REMARK  151  A    between atoms: _349  and  _350
REMARK  152  A    between atoms: _359  and  _361
REMARK  153  A    between atoms: _361  and  _362
REMARK  154  A    between atoms: _361  and  _364
REMARK  155  A    between atoms: _364  and  _365
REMARK  156  A    between atoms: _368  and  _370
REMARK  157  A    between atoms: _370  and  _371
REMARK  158  A    between atoms: _370  and  _373
REMARK  159  A    between atoms: _373  and  _374
REMARK  160  A    between atoms: _377  and  _379
REMARK  161  A    between atoms: _379  and  _380
REMARK  162  A    between atoms: _379  and  _382
REMARK  163  A    between atoms: _382  and  _383
REMARK  164  A    between atoms: _383  and  _384
REMARK  165  A    between atoms: _389  and  _391
REMARK  166  A    between atoms: _391  and  _392
REMARK  167  A    between atoms: _391  and  _394
REMARK  168  A    between atoms: _397  and  _399
REMARK  169  A    between atoms: _399  and  _400
REMARK  170  A    between atoms: _399  and  _402
REMARK  171  A    between atoms: _402  and  _403
REMARK  172  A    between atoms: _406  and  _408
REMARK  173  A    between atoms: _408  and  _409
REMARK  174  A    between atoms: _408  and  _411
REMARK  175  A    between atoms: _411  and  _412
REMARK  176  A    between atoms: _412  and  _413
REMARK  177  A    between atoms: _415  and  _417
REMARK  178  A    between atoms: _417  and  _418
REMARK  179  A    between atoms: _417  and  _420
REMARK  180  A    between atoms: _420  and  _421
REMARK  181  A    between atoms: _421  and  _422
REMARK  182  A    between atoms: _425  and  _427
REMARK  183  A    between atoms: _427  and  _428
REMARK  184  A    between atoms: _427  and  _430
REMARK  185  A    between atoms: _430  and  _431
REMARK  186  A    between atoms: _434  and  _436
REMARK  187  A    between atoms: _436  and  _437
REMARK  188  A    between atoms: _436  and  _439
REMARK  189  A    between atoms: _439  and  _440
REMARK  190  A    between atoms: _443  and  _445
REMARK  191  A    between atoms: _445  and  _446
REMARK  192  A    between atoms: _445  and  _448
REMARK  193  A    between atoms: _448  and  _449
REMARK  194  A    between atoms: _454  and  _456
REMARK  195  A    between atoms: _456  and  _457
REMARK  196  A    between atoms: _460  and  _462
REMARK  197  A    between atoms: _462  and  _463
REMARK  198  A    between atoms: _462  and  _465
REMARK  199  A    between atoms: _465  and  _466
REMARK  200  A    between atoms: _469  and  _471
REMARK  201  A    between atoms: _471  and  _472
REMARK  202  A    between atoms: _471  and  _474
REMARK  203  A    between atoms: _477  and  _479
REMARK  204  A    between atoms: _479  and  _480
REMARK  205  A    between atoms: _479  and  _482
REMARK  206  A    between atoms: _482  and  _483
REMARK  207  A    between atoms: _483  and  _484
REMARK  208  A    between atoms: _484  and  _485
REMARK  209  A    between atoms: _494  and  _496
REMARK  210  A    between atoms: _496  and  _497
REMARK  211  A    between atoms: _496  and  _499
REMARK  212  A    between atoms: _499  and  _500
REMARK  213  A    between atoms: _503  and  _505
REMARK  214  A    between atoms: _505  and  _506
REMARK  215  A    between atoms: _505  and  _508
REMARK  216  A    between atoms: _508  and  _509
REMARK  217  A    between atoms: _512  and  _514
REMARK  218  A    between atoms: _514  and  _515
REMARK  219  A    between atoms: _514  and  _517
REMARK  220  A    between atoms: _517  and  _518
REMARK  221  A    between atoms: _518  and  _519
REMARK  222  A    between atoms: _524  and  _526
REMARK  223  A    between atoms: _526  and  _527
REMARK  224  A    between atoms: _526  and  _529
REMARK  225  A    between atoms: _532  and  _534
REMARK  226  A    between atoms: _534  and  _535
REMARK  227  A    between atoms: _534  and  _537
REMARK  228  A    between atoms: _537  and  _538
REMARK  229  A    between atoms: _541  and  _543
REMARK  230  A    between atoms: _543  and  _544
REMARK  231  A    between atoms: _543  and  _546
REMARK  232  A    between atoms: _546  and  _547
REMARK  233  A    between atoms: _547  and  _548
REMARK  234  A    between atoms: _550  and  _552
REMARK  235  A    between atoms: _552  and  _553
REMARK  236  A    between atoms: _552  and  _555
REMARK  237  A    between atoms: _555  and  _556
REMARK  238  A    between atoms: _556  and  _557
REMARK  239  A    between atoms: _560  and  _562
REMARK  240  A    between atoms: _562  and  _563
REMARK  241  A    between atoms: _562  and  _565
REMARK  242  A    between atoms: _565  and  _566
REMARK  243  A    between atoms: _569  and  _571
REMARK  244  A    between atoms: _571  and  _572
REMARK  245  A    between atoms: _571  and  _574
REMARK  246  A    between atoms: _574  and  _575
REMARK  247  A    between atoms: _575  and  _576
REMARK  248  A    between atoms: _581  and  _583
REMARK  249  A    between atoms: _583  and  _584
REMARK  250  A    between atoms: _583  and  _586
REMARK  251  A    between atoms: _586  and  _587
REMARK  252  A    between atoms: _590  and  _592
REMARK  253  A    between atoms: _592  and  _593
REMARK  254  A    between atoms: _592  and  _595
REMARK  255  A    between atoms: _595  and  _596
REMARK  256  A    between atoms: _601  and  _603
REMARK  257  A    between atoms: _603  and  _604
REMARK  258  A    between atoms: _607  and  _609
REMARK  259  A    between atoms: _609  and  _610
REMARK  260  A    between atoms: _609  and  _612
REMARK  261  A    between atoms: _612  and  _613
REMARK  262  A    between atoms: _616  and  _618
REMARK  263  A    between atoms: _618  and  _619
REMARK  264  A    between atoms: _618  and  _621
REMARK  265  A    between atoms: _624  and  _626
REMARK  266  A    between atoms: _626  and  _627
REMARK  267  A    between atoms: _626  and  _629
REMARK  268  A    between atoms: _629  and  _630
REMARK  269  A    between atoms: _630  and  _631
REMARK  270  A    between atoms: _631  and  _632
REMARK  271  A    between atoms: _641  and  _643
REMARK  272  A    between atoms: _643  and  _644
REMARK  273  A    between atoms: _643  and  _646
REMARK  274  A    between atoms: _646  and  _647
REMARK  275  A    between atoms: _650  and  _652
REMARK  276  A    between atoms: _652  and  _653
REMARK  277  A    between atoms: _652  and  _655
REMARK  278  A    between atoms: _655  and  _656
REMARK  279  A    between atoms: _659  and  _661
REMARK  280  A    between atoms: _661  and  _662
REMARK  281  A    between atoms: _661  and  _664
REMARK  282  A    between atoms: _664  and  _665
REMARK  283  A    between atoms: _665  and  _666
REMARK  284  A    between atoms: _666  and  _667
REMARK  285  A    between atoms: _676  and  _678
REMARK  286  A    between atoms: _678  and  _679
REMARK  287  A    between atoms: _678  and  _681
REMARK  288  A    between atoms: _681  and  _682
REMARK  289  A    between atoms: _682  and  _683
REMARK  290  A    between atoms: _688  and  _690
REMARK  291  A    between atoms: _690  and  _691
REMARK  292  A    between atoms: _690  and  _693
REMARK  293  A    between atoms: _696  and  _698
REMARK  294  A    between atoms: _698  and  _699
REMARK  295  A    between atoms: _698  and  _701
REMARK  296  A    between atoms: _701  and  _702
REMARK                            x       y       z     vdW  Elec       q    Type
REMARK                         _______ _______ _______ _____ _____    ______ ____
ROOT
ATOM      1  C   LEU A   1      -5.166   1.561   5.382  0.00  0.00    +0.238 C 
ATOM      2  O   LEU A   1      -6.017   1.528   6.275  0.00  0.00    -0.274 OA
ATOM      3  N   LEU A   2      -3.997   2.176   5.528  0.00  0.00    -0.298 N 
ATOM      4  H   LEU A   2      -3.316   2.182   4.742  0.00  0.00    +0.150 HD
ENDROOT
BRANCH   1   5
ATOM      5  CA  LEU A   1      -5.414   0.888   4.036  0.00  0.00    +0.145 C 
BRANCH   5   6
ATOM      6  N   LEU A   1      -4.988   1.752   2.935  0.00  0.00    -0.238 NA
ATOM      7  H   LEU A   1      -4.213   1.448   2.312  0.00  0.00    +0.142 HD
ENDBRANCH   5   6
BRANCH   5   8
ATOM      8  CB  LEU A   1      -4.668  -0.454   3.976  0.00  0.00    +0.026 C 
BRANCH   8   9
ATOM      9  CG  LEU A   1      -5.108  -1.406   2.853  0.00  0.00    +0.002 C 
ATOM     10  CD2 LEU A   1      -6.476  -1.985   3.188  0.00  0.00    +0.000 C 
ATOM     11  CD1 LEU A   1      -4.095  -2.517   2.672  0.00  0.00    +0.000 C 
ENDBRANCH   8   9
ENDBRANCH   5   8
ENDBRANCH   1   5
BRANCH   3  12
ATOM     12  CA  LEU A   2      -3.660   2.842   6.778  0.00  0.00    +0.137 C 
BRANCH  12  13
ATOM     13  C   LEU A   2      -4.592   4.025   7.010  0.00  0.00    +0.227 C 
ATOM     14  O   LEU A   2      -4.997   4.293   8.141  0.00  0.00    -0.286 OA
ENDBRANCH  12  13
BRANCH  12  15
ATOM     15  CB  LEU A   2      -2.201   3.309   6.759  0.00  0.00    +0.028 C 
BRANCH  15  16
ATOM     16  CG  LEU A   2      -1.629   3.805   8.089  0.00  0.00    +0.002 C 
ATOM     17  CD2 LEU A   2      -1.859   2.751   9.184  0.00  0.00    +0.000 C 
ATOM     18  CD1 LEU A   2      -0.138   4.098   7.924  0.00  0.00    +0.000 C 
ENDBRANCH  15  16
ENDBRANCH  12  15
ENDBRANCH   3  12
TORSDOF 8
REMARK  Name = ../refined-set-2016/3v2p/3v2p_pocket.pdb
REMARK  296 active torsions:
REMARK  status: ('A' for Active; 'I' for Inactive)
REMARK    1  A    between atoms: _1  and  _3
REMARK    2  A    between atoms: _3  and  _4
REMARK    3  A    between atoms: _3  and  _6
REMARK    4  A    between atoms: _6  and  _7
REMARK    5  A    between atoms: _7  and  _8
REMARK    6  A    between atoms: _10  and  _12
REMARK    7  A    between atoms: _12  and  _13
REMARK    8  A    between atoms: _12  and  _15
REMARK    9  A    between atoms: _15  and  _16
REMARK   10  A    between atoms: _16  and  _17
REMARK   11  A    between atoms: _20  and  _22
REMARK   12  A    between atoms: _22  and  _23
REMARK   13  A    between atoms: _22  and  _25
REMARK   14  A    between atoms: _25  and  _26
REMARK   15  A    between atoms: _29  and  _31
REMARK   16  A    between atoms: _31  and  _32
REMARK   17  A    between atoms: _31  and  _34
REMARK   18  A    between atoms: _34  and  _35
REMARK   19  A    between atoms: _38  and  _40
REMARK   20  A    between atoms: _40  and  _41
REMARK   21  A    between atoms: _40  and  _43
REMARK   22  A    between atoms: _43  and  _44
REMARK   23  A    between atoms: _49  and  _51
REMARK   24  A    between atoms: _51  and  _52
REMARK   25  A    between atoms: _55  and  _57
REMARK   26  A    between atoms: _57  and  _58
REMARK   27  A    between atoms: _57  and  _60
REMARK   28  A    between atoms: _60  and  _61
REMARK   29  A    between atoms: _64  and  _66
REMARK   30  A    between atoms: _66  and  _67
REMARK   31  A    between atoms: _66  and  _69
REMARK   32  A    between atoms: _72  and  _74
REMARK   33  A    between atoms: _74  and  _75
REMARK   34  A    between atoms: _74  and  _77
REMARK   35  A    between atoms: _77  and  _78
REMARK   36  A    between atoms: _78  and  _79
REMARK   37  A    between atoms: _79  and  _80
REMARK   38  A    between atoms: _89  and  _91
REMARK   39  A    between atoms: _91  and  _92
REMARK   40  A    between atoms: _91  and  _94
REMARK   41  A    between atoms: _94  and  _95
REMARK   42  A    between atoms: _98  and  _100
REMARK   43  A    between atoms: _100  and  _101
REMARK   44  A    between atoms: _100  and  _103
REMARK   45  A    between atoms: _103  and  _104
REMARK   46  A    between atoms: _107  and  _109
REMARK   47  A    between atoms: _109  and  _110
REMARK   48  A    between atoms: _109  and  _112
REMARK   49  A    between atoms: _112  and  _113
REMARK   50  A    between atoms: _113  and  _114
REMARK   51  A    between atoms: _119  and  _121
REMARK   52  A    between atoms: _121  and  _122
REMARK   53  A    between atoms: _121  and  _124
REMARK   54  A    between atoms: _127  and  _129
REMARK   55  A    between atoms: _129  and  _130
REMARK   56  A    between atoms: _129  and  _132
REMARK   57  A    between atoms: _132  and  _133
REMARK   58  A    between atoms: _136  and  _138
REMARK   59  A    between atoms: _138  and  _139
REMARK   60  A    between atoms: _138  and  _141
REMARK   61  A    between atoms: _141  and  _142
REMARK   62  A    between atoms: _142  and  _143
REMARK   63  A    between atoms: _145  and  _147
REMARK   64  A    between atoms: _147  and  _148
REMARK   65  A    between atoms: _147  and  _150
REMARK   66  A    between atoms: _150  and  _151
REMARK   67  A    between atoms: _151  and  _152
REMARK   68  A    between atoms: _155  and  _157
REMARK   69  A    between atoms: _157  and  _158
REMARK   70  A    between atoms: _157  and  _160
REMARK   71  A    between atoms: _160  and  _161
REMARK   72  A    between atoms: _164  and  _166
REMARK   73  A    between atoms: _166  and  _167
REMARK   74  A    between atoms: _166  and  _169
REMARK   75  A    between atoms: _169  and  _170
REMARK   76  A    between atoms: _173  and  _175
REMARK   77  A    between atoms: _175  and  _176
REMARK   78  A    between atoms: _175  and  _178
REMARK   79  A    between atoms: _178  and  _179
REMARK   80  A    between atoms: _184  and  _186
REMARK   81  A    between atoms: _186  and  _187
REMARK   82  A    between atoms: _190  and  _192
REMARK   83  A    between atoms: _192  and  _193
REMARK   84  A    between atoms: _192  and  _195
REMARK   85  A    between atoms: _195  and  _196
REMARK   86  A    between atoms: _199  and  _201
REMARK   87  A    between atoms: _201  and  _202
REMARK   88  A    between atoms: _201  and  _204
REMARK   89  A    between atoms: _207  and  _209
REMARK   90  A    between atoms: _209  and  _210
REMARK   91  A    between atoms: _209  and  _212
REMARK   92  A    between atoms: _212  and  _213
REMARK   93  A    between atoms: _213  and  _214
REMARK   94  A    between atoms: _214  and  _215
REMARK   95  A    between atoms: _224  and  _226
REMARK   96  A    between atoms: _226  and  _227
REMARK   97  A    between atoms: _226  and  _229
REMARK   98  A    between atoms: _229  and  _230
REMARK   99  A    between atoms: _233  and  _235
REMARK  100  A    between atoms: _235  and  _236
REMARK  101  A    between atoms: _235  and  _238
REMARK  102  A    between atoms: _238  and  _239
REMARK  103  A    between atoms: _242  and  _244
REMARK  104  A    between atoms: _244  and  _245
REMARK  105  A    between atoms: _244  and  _247
REMARK  106  A    between atoms: _247  and  _248
REMARK  107  A    between atoms: _248  and  _249
REMARK  108  A    between atoms: _254  and  _256
REMARK  109  A    between atoms: _256  and  _257
REMARK  110  A    between atoms: _256  and  _259
REMARK  111  A    between atoms: _262  and  _264
REMARK  112  A    between atoms: _264  and  _265
REMARK  113  A    between atoms: _264  and  _267
REMARK  114  A    between atoms: _267  and  _268
REMARK  115  A    between atoms: _271  and  _273
REMARK  116  A    between atoms: _273  and  _274
REMARK  117  A    between atoms: _273  and  _276
REMARK  118  A    between atoms: _276  and  _277
REMARK  119  A    between atoms: _277  and  _278
REMARK  120  A    between atoms: _280  and  _282
REMARK  121  A    between atoms: _282  and  _283
REMARK  122  A    between atoms: _282  and  _285
REMARK  123  A    between atoms: _285  and  _286
REMARK  124  A    between atoms: _286  and  _287
REMARK  125  A    between atoms: _290  and  _292
REMARK  126  A    between atoms: _292  and  _293
REMARK  127  A    between atoms: _292  and  _295
REMARK  128  A    between atoms: _295  and  _296
REMARK  129  A    between atoms: _299  and  _301
REMARK  130  A    between atoms: _301  and  _302
REMARK  131  A    between atoms: _301  and  _304
REMARK  132  A    between atoms: _304  and  _305
REMARK  133  A    between atoms: _308  and  _310
REMARK  134  A    between atoms: _310  and  _311
REMARK  135  A    between atoms: _310  and  _313
REMARK  136  A    between atoms: _313  and  _314
REMARK  137  A    between atoms: _319  and  _321
REMARK  138  A    between atoms: _321  and  _322
REMARK  139  A    between atoms: _325  and  _327
REMARK  140  A    between atoms: _327  and  _328
REMARK  141  A    between atoms: _327  and  _330
REMARK  142  A    between atoms: _330  and  _331
REMARK  143  A    between atoms: _334  and  _336
REMARK  144  A    between atoms: _336  and  _337
REMARK  145  A    between atoms: _336  and  _339
REMARK  146  A    between atoms: _342  and  _344
REMARK  147  A    between atoms: _344  and  _345
REMARK  148  A    between atoms: _344  and  _347
REMARK  149  A    between atoms: _347  and  _348
REMARK  150  A    between atoms: _348  and  _349
REMARK  151  A    between atoms: _349  and  _350
REMARK  152  A    between atoms: _359  and  _361
REMARK  153  A    between atoms: _361  and  _362
REMARK  154  A    between atoms: _361  and  _364
REMARK  155  A    between atoms: _364  and  _365
REMARK  156  A    between atoms: _368  and  _370
REMARK  157  A    between atoms: _370  and  _371
REMARK  158  A    between atoms: _370  and  _373
REMARK  159  A    between atoms: _373  and  _374
REMARK  160  A    between atoms: _377  and  _379
REMARK  161  A    between atoms: _379  and  _380
REMARK  162  A    between atoms: _379  and  _382
REMARK  163  A    between atoms: _382  and  _383
REMARK  164  A    between atoms: _383  and  _384
REMARK  165  A    between atoms: _389  and  _391
REMARK  166  A    between atoms: _391  and  _392
REMARK  167  A    between atoms: _391  and  _394
REMARK  168  A    between atoms: _397  and  _399
REMARK  169  A    between atoms: _399  and  _400
REMARK  170  A    between atoms: _399  and  _402
REMARK  171  A    between atoms: _402  and  _403
REMARK  172  A    between atoms: _406  and  _408
REMARK  173  A    between atoms: _408  and  _409
REMARK  174  A    between atoms: _408  and  _411
REMARK  175  A    between atoms: _411  and  _412
REMARK  176  A    between atoms: _412  and  _413
REMARK  177  A    between atoms: _415  and  _417
REMARK  178  A    between atoms: _417  and  _418
REMARK  179  A    between atoms: _417  and  _420
REMARK  180  A    between atoms: _420  and  _421
REMARK  181  A    between atoms: _421  and  _422
REMARK  182  A    between atoms: _425  and  _427
REMARK  183  A    between atoms: _427  and  _428
REMARK  184  A    between atoms: _427  and  _430
REMARK  185  A    between atoms: _430  and  _431
REMARK  186  A    between atoms: _434  and  _436
REMARK  187  A    between atoms: _436  and  _437
REMARK  188  A    between atoms: _436  and  _439
REMARK  189  A    between atoms: _439  and  _440
REMARK  190  A    between atoms: _443  and  _445
REMARK  191  A    between atoms: _445  and  _446
REMARK  192  A    between atoms: _445  and  _448
REMARK  193  A    between atoms: _448  and  _449
REMARK  194  A    between atoms: _454  and  _456
REMARK  195  A    between atoms: _456  and  _457
REMARK  196  A    between atoms: _460  and  _462
REMARK  197  A    between atoms: _462  and  _463
REMARK  198  A    between atoms: _462  and  _465
REMARK  199  A    between atoms: _465  and  _466
REMARK  200  A    between atoms: _469  and  _471
REMARK  201  A    between atoms: _471  and  _472
REMARK  202  A    between atoms: _471  and  _474
REMARK  203  A    between atoms: _477  and  _479
REMARK  204  A    between atoms: _479  and  _480
REMARK  205  A    between atoms: _479  and  _482
REMARK  206  A    between atoms: _482  and  _483
REMARK  207  A    between atoms: _483  and  _484
REMARK  208  A    between atoms: _484  and  _485
REMARK  209  A    between atoms: _494  and  _496
REMARK  210  A    between atoms: _496  and  _497
REMARK  211  A    between atoms: _496  and  _499
REMARK  212  A    between atoms: _499  and  _500
REMARK  213  A    between atoms: _503  and  _505
REMARK  214  A    between atoms: _505  and  _506
REMARK  215  A    between atoms: _505  and  _508
REMARK  216  A    between atoms: _508  and  _509
REMARK  217  A    between atoms: _512  and  _514
REMARK  218  A    between atoms: _514  and  _515
REMARK  219  A    between atoms: _514  and  _517
REMARK  220  A    between atoms: _517  and  _518
REMARK  221  A    between atoms: _518  and  _519
REMARK  222  A    between atoms: _524  and  _526
REMARK  223  A    between atoms: _526  and  _527
REMARK  224  A    between atoms: _526  and  _529
REMARK  225  A    between atoms: _532  and  _534
REMARK  226  A    between atoms: _534  and  _535
REMARK  227  A    between atoms: _534  and  _537
REMARK  228  A    between atoms: _537  and  _538
REMARK  229  A    between atoms: _541  and  _543
REMARK  230  A    between atoms: _543  and  _544
REMARK  231  A    between atoms: _543  and  _546
REMARK  232  A    between atoms: _546  and  _547
REMARK  233  A    between atoms: _547  and  _548
REMARK  234  A    between atoms: _550  and  _552
REMARK  235  A    between atoms: _552  and  _553
REMARK  236  A    between atoms: _552  and  _555
REMARK  237  A    between atoms: _555  and  _556
REMARK  238  A    between atoms: _556  and  _557
REMARK  239  A    between atoms: _560  and  _562
REMARK  240  A    between atoms: _562  and  _563
REMARK  241  A    between atoms: _562  and  _565
REMARK  242  A    between atoms: _565  and  _566
REMARK  243  A    between atoms: _569  and  _571
REMARK  244  A    between atoms: _571  and  _572
REMARK  245  A    between atoms: _571  and  _574
REMARK  246  A    between atoms: _574  and  _575
REMARK  247  A    between atoms: _575  and  _576
REMARK  248  A    between atoms: _581  and  _583
REMARK  249  A    between atoms: _583  and  _584
REMARK  250  A    between atoms: _583  and  _586
REMARK  251  A    between atoms: _586  and  _587
REMARK  252  A    between atoms: _590  and  _592
REMARK  253  A    between atoms: _592  and  _593
REMARK  254  A    between atoms: _592  and  _595
REMARK  255  A    between atoms: _595  and  _596
REMARK  256  A    between atoms: _601  and  _603
REMARK  257  A    between atoms: _603  and  _604
REMARK  258  A    between atoms: _607  and  _609
REMARK  259  A    between atoms: _609  and  _610
REMARK  260  A    between atoms: _609  and  _612
REMARK  261  A    between atoms: _612  and  _613
REMARK  262  A    between atoms: _616  and  _618
REMARK  263  A    between atoms: _618  and  _619
REMARK  264  A    between atoms: _618  and  _621
REMARK  265  A    between atoms: _624  and  _626
REMARK  266  A    between atoms: _626  and  _627
REMARK  267  A    between atoms: _626  and  _629
REMARK  268  A    between atoms: _629  and  _630
REMARK  269  A    between atoms: _630  and  _631
REMARK  270  A    between atoms: _631  and  _632
REMARK  271  A    between atoms: _641  and  _643
REMARK  272  A    between atoms: _643  and  _644
REMARK  273  A    between atoms: _643  and  _646
REMARK  274  A    between atoms: _646  and  _647
REMARK  275  A    between atoms: _650  and  _652
REMARK  276  A    between atoms: _652  and  _653
REMARK  277  A    between atoms: _652  and  _655
REMARK  278  A    between atoms: _655  and  _656
REMARK  279  A    between atoms: _659  and  _661
REMARK  280  A    between atoms: _661  and  _662
REMARK  281  A    between atoms: _661  and  _664
REMARK  282  A    between atoms: _664  and  _665
REMARK  283  A    between atoms: _665  and  _666
REMARK  284  A    between atoms: _666  and  _667
REMARK  285  A    between atoms: _676  and  _678
REMARK  286  A    between atoms: _678  and  _679
REMARK  287  A    between atoms: _678  and  _681
REMARK  288  A    between atoms: _681  and  _682
REMARK  289  A    between atoms: _682  and  _683
REMARK  290  A    between atoms: _688  and  _690
REMARK  291  A    between atoms: _690  and  _691
REMARK  292  A    between atoms: _690  and  _693
REMARK  293  A    between atoms: _696  and  _698
REMARK  294  A    between atoms: _698  and  _699
REMARK  295  A    between atoms: _698  and  _701
REMARK  296  A    between atoms: _701  and  _702
REMARK                            x       y       z     vdW  Elec       q    Type
REMARK                         _______ _______ _______ _____ _____    ______ ____
ROOT
ATOM      1  CA  GLN A   1      -7.459   2.085   9.718  0.00  0.00    +0.145 C 
ENDROOT
BRANCH   1   2
ATOM      2  C   GLN A   1      -7.443   3.177  10.790  0.00  0.00    +0.238 C 
ATOM      3  O   GLN A   1      -7.951   2.979  11.899  0.00  0.00    -0.274 OA
ATOM      4  N   VAL A   2      -6.842   4.318  10.468  0.00  0.00    -0.298 N 
ATOM      5  H   VAL A   2      -6.406   4.422   9.529  0.00  0.00    +0.150 HD
BRANCH   4   6
ATOM      6  CA  VAL A   2      -6.786   5.426  11.415  0.00  0.00    +0.137 C 
BRANCH   6   7
ATOM      7  CB  VAL A   2      -5.924   6.592  10.870  0.00  0.00    +0.026 C 
ATOM      8  CG2 VAL A   2      -5.982   7.774  11.827  0.00  0.00    +0.002 C 
ATOM      9  CG1 VAL A   2      -4.489   6.132  10.696  0.00  0.00    +0.002 C 
ENDBRANCH   6   7
BRANCH   6  10
ATOM     10  C   VAL A   2      -8.198   5.933  11.703  0.00  0.00    +0.227 C 
ATOM     11  O   VAL A   2      -8.517   6.301  12.834  0.00  0.00    -0.286 OA
ENDBRANCH   6  10
ENDBRANCH   4   6
ENDBRANCH   1   2
BRANCH   1  12
ATOM     12  N   GLN A   1      -7.687   2.600   8.371  0.00  0.00    -0.238 NA
ATOM     13  H   GLN A   1      -6.961   2.447   7.642  0.00  0.00    +0.142 HD
ENDBRANCH   1  12
BRANCH   1  14
ATOM     14  CB  GLN A   1      -6.147   1.297   9.759  0.00  0.00    +0.036 C 
BRANCH  14  15
ATOM     15  CG  GLN A   1      -5.920   0.530  11.056  0.00  0.00    +0.087 C 
BRANCH  15  16
ATOM     16  CD  GLN A   1      -4.681  -0.344  11.002  0.00  0.00    +0.219 C 
ATOM     17  NE2 GLN A   1      -3.563   0.206  11.444  0.00  0.00    -0.329 N 
ATOM     18 HE21 GLN A   1      -3.572   1.178  11.814  0.00  0.00    +0.145 HD
ATOM     19 HE22 GLN A   1      -2.674  -0.333  11.422  0.00  0.00    +0.145 HD
ATOM     20  OE1 GLN A   1      -4.724  -1.497  10.552  0.00  0.00    -0.275 OA
ENDBRANCH  15  16
ENDBRANCH  14  15
ENDBRANCH   1  14
TORSDOF 8
REMARK  Name = ../refined-set-2016/3v2p/3v2p_pocket.pdb
REMARK  296 active torsions:
REMARK  status: ('A' for Active; 'I' for Inactive)
REMARK    1  A    between atoms: _1  and  _3
REMARK    2  A    between atoms: _3  and  _4
REMARK    3  A    between atoms: _3  and  _6
REMARK    4  A    between atoms: _6  and  _7
REMARK    5  A    between atoms: _7  and  _8
REMARK    6  A    between atoms: _10  and  _12
REMARK    7  A    between atoms: _12  and  _13
REMARK    8  A    between atoms: _12  and  _15
REMARK    9  A    between atoms: _15  and  _16
REMARK   10  A    between atoms: _16  and  _17
REMARK   11  A    between atoms: _20  and  _22
REMARK   12  A    between atoms: _22  and  _23
REMARK   13  A    between atoms: _22  and  _25
REMARK   14  A    between atoms: _25  and  _26
REMARK   15  A    between atoms: _29  and  _31
REMARK   16  A    between atoms: _31  and  _32
REMARK   17  A    between atoms: _31  and  _34
REMARK   18  A    between atoms: _34  and  _35
REMARK   19  A    between atoms: _38  and  _40
REMARK   20  A    between atoms: _40  and  _41
REMARK   21  A    between atoms: _40  and  _43
REMARK   22  A    between atoms: _43  and  _44
REMARK   23  A    between atoms: _49  and  _51
REMARK   24  A    between atoms: _51  and  _52
REMARK   25  A    between atoms: _55  and  _57
REMARK   26  A    between atoms: _57  and  _58
REMARK   27  A    between atoms: _57  and  _60
REMARK   28  A    between atoms: _60  and  _61
REMARK   29  A    between atoms: _64  and  _66
REMARK   30  A    between atoms: _66  and  _67
REMARK   31  A    between atoms: _66  and  _69
REMARK   32  A    between atoms: _72  and  _74
REMARK   33  A    between atoms: _74  and  _75
REMARK   34  A    between atoms: _74  and  _77
REMARK   35  A    between atoms: _77  and  _78
REMARK   36  A    between atoms: _78  and  _79
REMARK   37  A    between atoms: _79  and  _80
REMARK   38  A    between atoms: _89  and  _91
REMARK   39  A    between atoms: _91  and  _92
REMARK   40  A    between atoms: _91  and  _94
REMARK   41  A    between atoms: _94  and  _95
REMARK   42  A    between atoms: _98  and  _100
REMARK   43  A    between atoms: _100  and  _101
REMARK   44  A    between atoms: _100  and  _103
REMARK   45  A    between atoms: _103  and  _104
REMARK   46  A    between atoms: _107  and  _109
REMARK   47  A    between atoms: _109  and  _110
REMARK   48  A    between atoms: _109  and  _112
REMARK   49  A    between atoms: _112  and  _113
REMARK   50  A    between atoms: _113  and  _114
REMARK   51  A    between atoms: _119  and  _121
REMARK   52  A    between atoms: _121  and  _122
REMARK   53  A    between atoms: _121  and  _124
REMARK   54  A    between atoms: _127  and  _129
REMARK   55  A    between atoms: _129  and  _130
REMARK   56  A    between atoms: _129  and  _132
REMARK   57  A    between atoms: _132  and  _133
REMARK   58  A    between atoms: _136  and  _138
REMARK   59  A    between atoms: _138  and  _139
REMARK   60  A    between atoms: _138  and  _141
REMARK   61  A    between atoms: _141  and  _142
REMARK   62  A    between atoms: _142  and  _143
REMARK   63  A    between atoms: _145  and  _147
REMARK   64  A    between atoms: _147  and  _148
REMARK   65  A    between atoms: _147  and  _150
REMARK   66  A    between atoms: _150  and  _151
REMARK   67  A    between atoms: _151  and  _152
REMARK   68  A    between atoms: _155  and  _157
REMARK   69  A    between atoms: _157  and  _158
REMARK   70  A    between atoms: _157  and  _160
REMARK   71  A    between atoms: _160  and  _161
REMARK   72  A    between atoms: _164  and  _166
REMARK   73  A    between atoms: _166  and  _167
REMARK   74  A    between atoms: _166  and  _169
REMARK   75  A    between atoms: _169  and  _170
REMARK   76  A    between atoms: _173  and  _175
REMARK   77  A    between atoms: _175  and  _176
REMARK   78  A    between atoms: _175  and  _178
REMARK   79  A    between atoms: _178  and  _179
REMARK   80  A    between atoms: _184  and  _186
REMARK   81  A    between atoms: _186  and  _187
REMARK   82  A    between atoms: _190  and  _192
REMARK   83  A    between atoms: _192  and  _193
REMARK   84  A    between atoms: _192  and  _195
REMARK   85  A    between atoms: _195  and  _196
REMARK   86  A    between atoms: _199  and  _201
REMARK   87  A    between atoms: _201  and  _202
REMARK   88  A    between atoms: _201  and  _204
REMARK   89  A    between atoms: _207  and  _209
REMARK   90  A    between atoms: _209  and  _210
REMARK   91  A    between atoms: _209  and  _212
REMARK   92  A    between atoms: _212  and  _213
REMARK   93  A    between atoms: _213  and  _214
REMARK   94  A    between atoms: _214  and  _215
REMARK   95  A    between atoms: _224  and  _226
REMARK   96  A    between atoms: _226  and  _227
REMARK   97  A    between atoms: _226  and  _229
REMARK   98  A    between atoms: _229  and  _230
REMARK   99  A    between atoms: _233  and  _235
REMARK  100  A    between atoms: _235  and  _236
REMARK  101  A    between atoms: _235  and  _238
REMARK  102  A    between atoms: _238  and  _239
REMARK  103  A    between atoms: _242  and  _244
REMARK  104  A    between atoms: _244  and  _245
REMARK  105  A    between atoms: _244  and  _247
REMARK  106  A    between atoms: _247  and  _248
REMARK  107  A    between atoms: _248  and  _249
REMARK  108  A    between atoms: _254  and  _256
REMARK  109  A    between atoms: _256  and  _257
REMARK  110  A    between atoms: _256  and  _259
REMARK  111  A    between atoms: _262  and  _264
REMARK  112  A    between atoms: _264  and  _265
REMARK  113  A    between atoms: _264  and  _267
REMARK  114  A    between atoms: _267  and  _268
REMARK  115  A    between atoms: _271  and  _273
REMARK  116  A    between atoms: _273  and  _274
REMARK  117  A    between atoms: _273  and  _276
REMARK  118  A    between atoms: _276  and  _277
REMARK  119  A    between atoms: _277  and  _278
REMARK  120  A    between atoms: _280  and  _282
REMARK  121  A    between atoms: _282  and  _283
REMARK  122  A    between atoms: _282  and  _285
REMARK  123  A    between atoms: _285  and  _286
REMARK  124  A    between atoms: _286  and  _287
REMARK  125  A    between atoms: _290  and  _292
REMARK  126  A    between atoms: _292  and  _293
REMARK  127  A    between atoms: _292  and  _295
REMARK  128  A    between atoms: _295  and  _296
REMARK  129  A    between atoms: _299  and  _301
REMARK  130  A    between atoms: _301  and  _302
REMARK  131  A    between atoms: _301  and  _304
REMARK  132  A    between atoms: _304  and  _305
REMARK  133  A    between atoms: _308  and  _310
REMARK  134  A    between atoms: _310  and  _311
REMARK  135  A    between atoms: _310  and  _313
REMARK  136  A    between atoms: _313  and  _314
REMARK  137  A    between atoms: _319  and  _321
REMARK  138  A    between atoms: _321  and  _322
REMARK  139  A    between atoms: _325  and  _327
REMARK  140  A    between atoms: _327  and  _328
REMARK  141  A    between atoms: _327  and  _330
REMARK  142  A    between atoms: _330  and  _331
REMARK  143  A    between atoms: _334  and  _336
REMARK  144  A    between atoms: _336  and  _337
REMARK  145  A    between atoms: _336  and  _339
REMARK  146  A    between atoms: _342  and  _344
REMARK  147  A    between atoms: _344  and  _345
REMARK  148  A    between atoms: _344  and  _347
REMARK  149  A    between atoms: _347  and  _348
REMARK  150  A    between atoms: _348  and  _349
REMARK  151  A    between atoms: _349  and  _350
REMARK  152  A    between atoms: _359  and  _361
REMARK  153  A    between atoms: _361  and  _362
REMARK  154  A    between atoms: _361  and  _364
REMARK  155  A    between atoms: _364  and  _365
REMARK  156  A    between atoms: _368  and  _370
REMARK  157  A    between atoms: _370  and  _371
REMARK  158  A    between atoms: _370  and  _373
REMARK  159  A    between atoms: _373  and  _374
REMARK  160  A    between atoms: _377  and  _379
REMARK  161  A    between atoms: _379  and  _380
REMARK  162  A    between atoms: _379  and  _382
REMARK  163  A    between atoms: _382  and  _383
REMARK  164  A    between atoms: _383  and  _384
REMARK  165  A    between atoms: _389  and  _391
REMARK  166  A    between atoms: _391  and  _392
REMARK  167  A    between atoms: _391  and  _394
REMARK  168  A    between atoms: _397  and  _399
REMARK  169  A    between atoms: _399  and  _400
REMARK  170  A    between atoms: _399  and  _402
REMARK  171  A    between atoms: _402  and  _403
REMARK  172  A    between atoms: _406  and  _408
REMARK  173  A    between atoms: _408  and  _409
REMARK  174  A    between atoms: _408  and  _411
REMARK  175  A    between atoms: _411  and  _412
REMARK  176  A    between atoms: _412  and  _413
REMARK  177  A    between atoms: _415  and  _417
REMARK  178  A    between atoms: _417  and  _418
REMARK  179  A    between atoms: _417  and  _420
REMARK  180  A    between atoms: _420  and  _421
REMARK  181  A    between atoms: _421  and  _422
REMARK  182  A    between atoms: _425  and  _427
REMARK  183  A    between atoms: _427  and  _428
REMARK  184  A    between atoms: _427  and  _430
REMARK  185  A    between atoms: _430  and  _431
REMARK  186  A    between atoms: _434  and  _436
REMARK  187  A    between atoms: _436  and  _437
REMARK  188  A    between atoms: _436  and  _439
REMARK  189  A    between atoms: _439  and  _440
REMARK  190  A    between atoms: _443  and  _445
REMARK  191  A    between atoms: _445  and  _446
REMARK  192  A    between atoms: _445  and  _448
REMARK  193  A    between atoms: _448  and  _449
REMARK  194  A    between atoms: _454  and  _456
REMARK  195  A    between atoms: _456  and  _457
REMARK  196  A    between atoms: _460  and  _462
REMARK  197  A    between atoms: _462  and  _463
REMARK  198  A    between atoms: _462  and  _465
REMARK  199  A    between atoms: _465  and  _466
REMARK  200  A    between atoms: _469  and  _471
REMARK  201  A    between atoms: _471  and  _472
REMARK  202  A    between atoms: _471  and  _474
REMARK  203  A    between atoms: _477  and  _479
REMARK  204  A    between atoms: _479  and  _480
REMARK  205  A    between atoms: _479  and  _482
REMARK  206  A    between atoms: _482  and  _483
REMARK  207  A    between atoms: _483  and  _484
REMARK  208  A    between atoms: _484  and  _485
REMARK  209  A    between atoms: _494  and  _496
REMARK  210  A    between atoms: _496  and  _497
REMARK  211  A    between atoms: _496  and  _499
REMARK  212  A    between atoms: _499  and  _500
REMARK  213  A    between atoms: _503  and  _505
REMARK  214  A    between atoms: _505  and  _506
REMARK  215  A    between atoms: _505  and  _508
REMARK  216  A    between atoms: _508  and  _509
REMARK  217  A    between atoms: _512  and  _514
REMARK  218  A    between atoms: _514  and  _515
REMARK  219  A    between atoms: _514  and  _517
REMARK  220  A    between atoms: _517  and  _518
REMARK  221  A    between atoms: _518  and  _519
REMARK  222  A    between atoms: _524  and  _526
REMARK  223  A    between atoms: _526  and  _527
REMARK  224  A    between atoms: _526  and  _529
REMARK  225  A    between atoms: _532  and  _534
REMARK  226  A    between atoms: _534  and  _535
REMARK  227  A    between atoms: _534  and  _537
REMARK  228  A    between atoms: _537  and  _538
REMARK  229  A    between atoms: _541  and  _543
REMARK  230  A    between atoms: _543  and  _544
REMARK  231  A    between atoms: _543  and  _546
REMARK  232  A    between atoms: _546  and  _547
REMARK  233  A    between atoms: _547  and  _548
REMARK  234  A    between atoms: _550  and  _552
REMARK  235  A    between atoms: _552  and  _553
REMARK  236  A    between atoms: _552  and  _555
REMARK  237  A    between atoms: _555  and  _556
REMARK  238  A    between atoms: _556  and  _557
REMARK  239  A    between atoms: _560  and  _562
REMARK  240  A    between atoms: _562  and  _563
REMARK  241  A    between atoms: _562  and  _565
REMARK  242  A    between atoms: _565  and  _566
REMARK  243  A    between atoms: _569  and  _571
REMARK  244  A    between atoms: _571  and  _572
REMARK  245  A    between atoms: _571  and  _574
REMARK  246  A    between atoms: _574  and  _575
REMARK  247  A    between atoms: _575  and  _576
REMARK  248  A    between atoms: _581  and  _583
REMARK  249  A    between atoms: _583  and  _584
REMARK  250  A    between atoms: _583  and  _586
REMARK  251  A    between atoms: _586  and  _587
REMARK  252  A    between atoms: _590  and  _592
REMARK  253  A    between atoms: _592  and  _593
REMARK  254  A    between atoms: _592  and  _595
REMARK  255  A    between atoms: _595  and  _596
REMARK  256  A    between atoms: _601  and  _603
REMARK  257  A    between atoms: _603  and  _604
REMARK  258  A    between atoms: _607  and  _609
REMARK  259  A    between atoms: _609  and  _610
REMARK  260  A    between atoms: _609  and  _612
REMARK  261  A    between atoms: _612  and  _613
REMARK  262  A    between atoms: _616  and  _618
REMARK  263  A    between atoms: _618  and  _619
REMARK  264  A    between atoms: _618  and  _621
REMARK  265  A    between atoms: _624  and  _626
REMARK  266  A    between atoms: _626  and  _627
REMARK  267  A    between atoms: _626  and  _629
REMARK  268  A    between atoms: _629  and  _630
REMARK  269  A    between atoms: _630  and  _631
REMARK  270  A    between atoms: _631  and  _632
REMARK  271  A    between atoms: _641  and  _643
REMARK  272  A    between atoms: _643  and  _644
REMARK  273  A    between atoms: _643  and  _646
REMARK  274  A    between atoms: _646  and  _647
REMARK  275  A    between atoms: _650  and  _652
REMARK  276  A    between atoms: _652  and  _653
REMARK  277  A    between atoms: _652  and  _655
REMARK  278  A    between atoms: _655  and  _656
REMARK  279  A    between atoms: _659  and  _661
REMARK  280  A    between atoms: _661  and  _662
REMARK  281  A    between atoms: _661  and  _664
REMARK  282  A    between atoms: _664  and  _665
REMARK  283  A    between atoms: _665  and  _666
REMARK  284  A    between atoms: _666  and  _667
REMARK  285  A    between atoms: _676  and  _678
REMARK  286  A    between atoms: _678  and  _679
REMARK  287  A    between atoms: _678  and  _681
REMARK  288  A    between atoms: _681  and  _682
REMARK  289  A    between atoms: _682  and  _683
REMARK  290  A    between atoms: _688  and  _690
REMARK  291  A    between atoms: _690  and  _691
REMARK  292  A    between atoms: _690  and  _693
REMARK  293  A    between atoms: _696  and  _698
REMARK  294  A    between atoms: _698  and  _699
REMARK  295  A    between atoms: _698  and  _701
REMARK  296  A    between atoms: _701  and  _702
REMARK                            x       y       z     vdW  Elec       q    Type
REMARK                         _______ _______ _______ _____ _____    ______ ____
ROOT
ATOM      1  CA  ILE A   1      -9.215   3.730  15.487  0.00  0.00    +0.133 C 
ENDROOT
BRANCH   1   2
ATOM      2  N   ILE A   1      -9.792   3.586  14.162  0.00  0.00    -0.239 NA
ATOM      3  H   ILE A   1      -9.187   3.690  13.323  0.00  0.00    +0.142 HD
ENDBRANCH   1   2
BRANCH   1   4
ATOM      4  C   ILE A   1      -9.712   5.012  16.146  0.00  0.00    +0.224 C 
ATOM      5  O   ILE A   1      -9.980   5.038  17.354  0.00  0.00    -0.287 OA
ENDBRANCH   1   4
BRANCH   1   6
ATOM      6  CB  ILE A   1      -7.671   3.717  15.431  0.00  0.00    +0.023 C 
ATOM      7  CG2 ILE A   1      -7.089   4.055  16.807  0.00  0.00    +0.002 C 
BRANCH   6   8
ATOM      8  CG1 ILE A   1      -7.198   2.333  14.970  0.00  0.00    +0.002 C 
ATOM      9  CD1 ILE A   1      -5.703   2.161  14.937  0.00  0.00    +0.000 C 
ENDBRANCH   6   8
ENDBRANCH   1   6
TORSDOF 4
REMARK  Name = ../refined-set-2016/3v2p/3v2p_pocket.pdb
REMARK  296 active torsions:
REMARK  status: ('A' for Active; 'I' for Inactive)
REMARK    1  A    between atoms: _1  and  _3
REMARK    2  A    between atoms: _3  and  _4
REMARK    3  A    between atoms: _3  and  _6
REMARK    4  A    between atoms: _6  and  _7
REMARK    5  A    between atoms: _7  and  _8
REMARK    6  A    between atoms: _10  and  _12
REMARK    7  A    between atoms: _12  and  _13
REMARK    8  A    between atoms: _12  and  _15
REMARK    9  A    between atoms: _15  and  _16
REMARK   10  A    between atoms: _16  and  _17
REMARK   11  A    between atoms: _20  and  _22
REMARK   12  A    between atoms: _22  and  _23
REMARK   13  A    between atoms: _22  and  _25
REMARK   14  A    between atoms: _25  and  _26
REMARK   15  A    between atoms: _29  and  _31
REMARK   16  A    between atoms: _31  and  _32
REMARK   17  A    between atoms: _31  and  _34
REMARK   18  A    between atoms: _34  and  _35
REMARK   19  A    between atoms: _38  and  _40
REMARK   20  A    between atoms: _40  and  _41
REMARK   21  A    between atoms: _40  and  _43
REMARK   22  A    between atoms: _43  and  _44
REMARK   23  A    between atoms: _49  and  _51
REMARK   24  A    between atoms: _51  and  _52
REMARK   25  A    between atoms: _55  and  _57
REMARK   26  A    between atoms: _57  and  _58
REMARK   27  A    between atoms: _57  and  _60
REMARK   28  A    between atoms: _60  and  _61
REMARK   29  A    between atoms: _64  and  _66
REMARK   30  A    between atoms: _66  and  _67
REMARK   31  A    between atoms: _66  and  _69
REMARK   32  A    between atoms: _72  and  _74
REMARK   33  A    between atoms: _74  and  _75
REMARK   34  A    between atoms: _74  and  _77
REMARK   35  A    between atoms: _77  and  _78
REMARK   36  A    between atoms: _78  and  _79
REMARK   37  A    between atoms: _79  and  _80
REMARK   38  A    between atoms: _89  and  _91
REMARK   39  A    between atoms: _91  and  _92
REMARK   40  A    between atoms: _91  and  _94
REMARK   41  A    between atoms: _94  and  _95
REMARK   42  A    between atoms: _98  and  _100
REMARK   43  A    between atoms: _100  and  _101
REMARK   44  A    between atoms: _100  and  _103
REMARK   45  A    between atoms: _103  and  _104
REMARK   46  A    between atoms: _107  and  _109
REMARK   47  A    between atoms: _109  and  _110
REMARK   48  A    between atoms: _109  and  _112
REMARK   49  A    between atoms: _112  and  _113
REMARK   50  A    between atoms: _113  and  _114
REMARK   51  A    between atoms: _119  and  _121
REMARK   52  A    between atoms: _121  and  _122
REMARK   53  A    between atoms: _121  and  _124
REMARK   54  A    between atoms: _127  and  _129
REMARK   55  A    between atoms: _129  and  _130
REMARK   56  A    between atoms: _129  and  _132
REMARK   57  A    between atoms: _132  and  _133
REMARK   58  A    between atoms: _136  and  _138
REMARK   59  A    between atoms: _138  and  _139
REMARK   60  A    between atoms: _138  and  _141
REMARK   61  A    between atoms: _141  and  _142
REMARK   62  A    between atoms: _142  and  _143
REMARK   63  A    between atoms: _145  and  _147
REMARK   64  A    between atoms: _147  and  _148
REMARK   65  A    between atoms: _147  and  _150
REMARK   66  A    between atoms: _150  and  _151
REMARK   67  A    between atoms: _151  and  _152
REMARK   68  A    between atoms: _155  and  _157
REMARK   69  A    between atoms: _157  and  _158
REMARK   70  A    between atoms: _157  and  _160
REMARK   71  A    between atoms: _160  and  _161
REMARK   72  A    between atoms: _164  and  _166
REMARK   73  A    between atoms: _166  and  _167
REMARK   74  A    between atoms: _166  and  _169
REMARK   75  A    between atoms: _169  and  _170
REMARK   76  A    between atoms: _173  and  _175
REMARK   77  A    between atoms: _175  and  _176
REMARK   78  A    between atoms: _175  and  _178
REMARK   79  A    between atoms: _178  and  _179
REMARK   80  A    between atoms: _184  and  _186
REMARK   81  A    between atoms: _186  and  _187
REMARK   82  A    between atoms: _190  and  _192
REMARK   83  A    between atoms: _192  and  _193
REMARK   84  A    between atoms: _192  and  _195
REMARK   85  A    between atoms: _195  and  _196
REMARK   86  A    between atoms: _199  and  _201
REMARK   87  A    between atoms: _201  and  _202
REMARK   88  A    between atoms: _201  and  _204
REMARK   89  A    between atoms: _207  and  _209
REMARK   90  A    between atoms: _209  and  _210
REMARK   91  A    between atoms: _209  and  _212
REMARK   92  A    between atoms: _212  and  _213
REMARK   93  A    between atoms: _213  and  _214
REMARK   94  A    between atoms: _214  and  _215
REMARK   95  A    between atoms: _224  and  _226
REMARK   96  A    between atoms: _226  and  _227
REMARK   97  A    between atoms: _226  and  _229
REMARK   98  A    between atoms: _229  and  _230
REMARK   99  A    between atoms: _233  and  _235
REMARK  100  A    between atoms: _235  and  _236
REMARK  101  A    between atoms: _235  and  _238
REMARK  102  A    between atoms: _238  and  _239
REMARK  103  A    between atoms: _242  and  _244
REMARK  104  A    between atoms: _244  and  _245
REMARK  105  A    between atoms: _244  and  _247
REMARK  106  A    between atoms: _247  and  _248
REMARK  107  A    between atoms: _248  and  _249
REMARK  108  A    between atoms: _254  and  _256
REMARK  109  A    between atoms: _256  and  _257
REMARK  110  A    between atoms: _256  and  _259
REMARK  111  A    between atoms: _262  and  _264
REMARK  112  A    between atoms: _264  and  _265
REMARK  113  A    between atoms: _264  and  _267
REMARK  114  A    between atoms: _267  and  _268
REMARK  115  A    between atoms: _271  and  _273
REMARK  116  A    between atoms: _273  and  _274
REMARK  117  A    between atoms: _273  and  _276
REMARK  118  A    between atoms: _276  and  _277
REMARK  119  A    between atoms: _277  and  _278
REMARK  120  A    between atoms: _280  and  _282
REMARK  121  A    between atoms: _282  and  _283
REMARK  122  A    between atoms: _282  and  _285
REMARK  123  A    between atoms: _285  and  _286
REMARK  124  A    between atoms: _286  and  _287
REMARK  125  A    between atoms: _290  and  _292
REMARK  126  A    between atoms: _292  and  _293
REMARK  127  A    between atoms: _292  and  _295
REMARK  128  A    between atoms: _295  and  _296
REMARK  129  A    between atoms: _299  and  _301
REMARK  130  A    between atoms: _301  and  _302
REMARK  131  A    between atoms: _301  and  _304
REMARK  132  A    between atoms: _304  and  _305
REMARK  133  A    between atoms: _308  and  _310
REMARK  134  A    between atoms: _310  and  _311
REMARK  135  A    between atoms: _310  and  _313
REMARK  136  A    between atoms: _313  and  _314
REMARK  137  A    between atoms: _319  and  _321
REMARK  138  A    between atoms: _321  and  _322
REMARK  139  A    between atoms: _325  and  _327
REMARK  140  A    between atoms: _327  and  _328
REMARK  141  A    between atoms: _327  and  _330
REMARK  142  A    between atoms: _330  and  _331
REMARK  143  A    between atoms: _334  and  _336
REMARK  144  A    between atoms: _336  and  _337
REMARK  145  A    between atoms: _336  and  _339
REMARK  146  A    between atoms: _342  and  _344
REMARK  147  A    between atoms: _344  and  _345
REMARK  148  A    between atoms: _344  and  _347
REMARK  149  A    between atoms: _347  and  _348
REMARK  150  A    between atoms: _348  and  _349
REMARK  151  A    between atoms: _349  and  _350
REMARK  152  A    between atoms: _359  and  _361
REMARK  153  A    between atoms: _361  and  _362
REMARK  154  A    between atoms: _361  and  _364
REMARK  155  A    between atoms: _364  and  _365
REMARK  156  A    between atoms: _368  and  _370
REMARK  157  A    between atoms: _370  and  _371
REMARK  158  A    between atoms: _370  and  _373
REMARK  159  A    between atoms: _373  and  _374
REMARK  160  A    between atoms: _377  and  _379
REMARK  161  A    between atoms: _379  and  _380
REMARK  162  A    between atoms: _379  and  _382
REMARK  163  A    between atoms: _382  and  _383
REMARK  164  A    between atoms: _383  and  _384
REMARK  165  A    between atoms: _389  and  _391
REMARK  166  A    between atoms: _391  and  _392
REMARK  167  A    between atoms: _391  and  _394
REMARK  168  A    between atoms: _397  and  _399
REMARK  169  A    between atoms: _399  and  _400
REMARK  170  A    between atoms: _399  and  _402
REMARK  171  A    between atoms: _402  and  _403
REMARK  172  A    between atoms: _406  and  _408
REMARK  173  A    between atoms: _408  and  _409
REMARK  174  A    between atoms: _408  and  _411
REMARK  175  A    between atoms: _411  and  _412
REMARK  176  A    between atoms: _412  and  _413
REMARK  177  A    between atoms: _415  and  _417
REMARK  178  A    between atoms: _417  and  _418
REMARK  179  A    between atoms: _417  and  _420
REMARK  180  A    between atoms: _420  and  _421
REMARK  181  A    between atoms: _421  and  _422
REMARK  182  A    between atoms: _425  and  _427
REMARK  183  A    between atoms: _427  and  _428
REMARK  184  A    between atoms: _427  and  _430
REMARK  185  A    between atoms: _430  and  _431
REMARK  186  A    between atoms: _434  and  _436
REMARK  187  A    between atoms: _436  and  _437
REMARK  188  A    between atoms: _436  and  _439
REMARK  189  A    between atoms: _439  and  _440
REMARK  190  A    between atoms: _443  and  _445
REMARK  191  A    between atoms: _445  and  _446
REMARK  192  A    between atoms: _445  and  _448
REMARK  193  A    between atoms: _448  and  _449
REMARK  194  A    between atoms: _454  and  _456
REMARK  195  A    between atoms: _456  and  _457
REMARK  196  A    between atoms: _460  and  _462
REMARK  197  A    between atoms: _462  and  _463
REMARK  198  A    between atoms: _462  and  _465
REMARK  199  A    between atoms: _465  and  _466
REMARK  200  A    between atoms: _469  and  _471
REMARK  201  A    between atoms: _471  and  _472
REMARK  202  A    between atoms: _471  and  _474
REMARK  203  A    between atoms: _477  and  _479
REMARK  204  A    between atoms: _479  and  _480
REMARK  205  A    between atoms: _479  and  _482
REMARK  206  A    between atoms: _482  and  _483
REMARK  207  A    between atoms: _483  and  _484
REMARK  208  A    between atoms: _484  and  _485
REMARK  209  A    between atoms: _494  and  _496
REMARK  210  A    between atoms: _496  and  _497
REMARK  211  A    between atoms: _496  and  _499
REMARK  212  A    between atoms: _499  and  _500
REMARK  213  A    between atoms: _503  and  _505
REMARK  214  A    between atoms: _505  and  _506
REMARK  215  A    between atoms: _505  and  _508
REMARK  216  A    between atoms: _508  and  _509
REMARK  217  A    between atoms: _512  and  _514
REMARK  218  A    between atoms: _514  and  _515
REMARK  219  A    between atoms: _514  and  _517
REMARK  220  A    between atoms: _517  and  _518
REMARK  221  A    between atoms: _518  and  _519
REMARK  222  A    between atoms: _524  and  _526
REMARK  223  A    between atoms: _526  and  _527
REMARK  224  A    between atoms: _526  and  _529
REMARK  225  A    between atoms: _532  and  _534
REMARK  226  A    between atoms: _534  and  _535
REMARK  227  A    between atoms: _534  and  _537
REMARK  228  A    between atoms: _537  and  _538
REMARK  229  A    between atoms: _541  and  _543
REMARK  230  A    between atoms: _543  and  _544
REMARK  231  A    between atoms: _543  and  _546
REMARK  232  A    between atoms: _546  and  _547
REMARK  233  A    between atoms: _547  and  _548
REMARK  234  A    between atoms: _550  and  _552
REMARK  235  A    between atoms: _552  and  _553
REMARK  236  A    between atoms: _552  and  _555
REMARK  237  A    between atoms: _555  and  _556
REMARK  238  A    between atoms: _556  and  _557
REMARK  239  A    between atoms: _560  and  _562
REMARK  240  A    between atoms: _562  and  _563
REMARK  241  A    between atoms: _562  and  _565
REMARK  242  A    between atoms: _565  and  _566
REMARK  243  A    between atoms: _569  and  _571
REMARK  244  A    between atoms: _571  and  _572
REMARK  245  A    between atoms: _571  and  _574
REMARK  246  A    between atoms: _574  and  _575
REMARK  247  A    between atoms: _575  and  _576
REMARK  248  A    between atoms: _581  and  _583
REMARK  249  A    between atoms: _583  and  _584
REMARK  250  A    between atoms: _583  and  _586
REMARK  251  A    between atoms: _586  and  _587
REMARK  252  A    between atoms: _590  and  _592
REMARK  253  A    between atoms: _592  and  _593
REMARK  254  A    between atoms: _592  and  _595
REMARK  255  A    between atoms: _595  and  _596
REMARK  256  A    between atoms: _601  and  _603
REMARK  257  A    between atoms: _603  and  _604
REMARK  258  A    between atoms: _607  and  _609
REMARK  259  A    between atoms: _609  and  _610
REMARK  260  A    between atoms: _609  and  _612
REMARK  261  A    between atoms: _612  and  _613
REMARK  262  A    between atoms: _616  and  _618
REMARK  263  A    between atoms: _618  and  _619
REMARK  264  A    between atoms: _618  and  _621
REMARK  265  A    between atoms: _624  and  _626
REMARK  266  A    between atoms: _626  and  _627
REMARK  267  A    between atoms: _626  and  _629
REMARK  268  A    between atoms: _629  and  _630
REMARK  269  A    between atoms: _630  and  _631
REMARK  270  A    between atoms: _631  and  _632
REMARK  271  A    between atoms: _641  and  _643
REMARK  272  A    between atoms: _643  and  _644
REMARK  273  A    between atoms: _643  and  _646
REMARK  274  A    between atoms: _646  and  _647
REMARK  275  A    between atoms: _650  and  _652
REMARK  276  A    between atoms: _652  and  _653
REMARK  277  A    between atoms: _652  and  _655
REMARK  278  A    between atoms: _655  and  _656
REMARK  279  A    between atoms: _659  and  _661
REMARK  280  A    between atoms: _661  and  _662
REMARK  281  A    between atoms: _661  and  _664
REMARK  282  A    between atoms: _664  and  _665
REMARK  283  A    between atoms: _665  and  _666
REMARK  284  A    between atoms: _666  and  _667
REMARK  285  A    between atoms: _676  and  _678
REMARK  286  A    between atoms: _678  and  _679
REMARK  287  A    between atoms: _678  and  _681
REMARK  288  A    between atoms: _681  and  _682
REMARK  289  A    between atoms: _682  and  _683
REMARK  290  A    between atoms: _688  and  _690
REMARK  291  A    between atoms: _690  and  _691
REMARK  292  A    between atoms: _690  and  _693
REMARK  293  A    between atoms: _696  and  _698
REMARK  294  A    between atoms: _698  and  _699
REMARK  295  A    between atoms: _698  and  _701
REMARK  296  A    between atoms: _701  and  _702
REMARK                            x       y       z     vdW  Elec       q    Type
REMARK                         _______ _______ _______ _____ _____    ______ ____
ROOT
ATOM      1  CA  MET A   1      13.809   4.718 -11.737  0.00  0.00    +0.134 C 
ENDROOT
BRANCH   1   2
ATOM      2  N   MET A   1      13.607   5.355 -13.031  0.00  0.00    -0.239 NA
ATOM      3  H   MET A   1      14.369   5.342 -13.739  0.00  0.00    +0.142 HD
ENDBRANCH   1   2
BRANCH   1   4
ATOM      4  C   MET A   1      13.798   5.760 -10.626  0.00  0.00    +0.224 C 
ATOM      5  O   MET A   1      13.215   5.542  -9.565  0.00  0.00    -0.287 OA
ENDBRANCH   1   4
BRANCH   1   6
ATOM      6  CB  MET A   1      15.127   3.942 -11.728  0.00  0.00    +0.037 C 
BRANCH   6   7
ATOM      7  CG  MET A   1      15.092   2.692 -12.594  0.00  0.00    +0.059 C 
BRANCH   7   8
ATOM      8  SD  MET A   1      16.596   1.721 -12.450  0.00  0.00    -0.139 S 
ATOM      9  CE  MET A   1      16.355   0.959 -10.865  0.00  0.00    +0.069 C 
ENDBRANCH   7   8
ENDBRANCH   6   7
ENDBRANCH   1   6
TORSDOF 5
REMARK  Name = ../refined-set-2016/3v2p/3v2p_pocket.pdb
REMARK  296 active torsions:
REMARK  status: ('A' for Active; 'I' for Inactive)
REMARK    1  A    between atoms: _1  and  _3
REMARK    2  A    between atoms: _3  and  _4
REMARK    3  A    between atoms: _3  and  _6
REMARK    4  A    between atoms: _6  and  _7
REMARK    5  A    between atoms: _7  and  _8
REMARK    6  A    between atoms: _10  and  _12
REMARK    7  A    between atoms: _12  and  _13
REMARK    8  A    between atoms: _12  and  _15
REMARK    9  A    between atoms: _15  and  _16
REMARK   10  A    between atoms: _16  and  _17
REMARK   11  A    between atoms: _20  and  _22
REMARK   12  A    between atoms: _22  and  _23
REMARK   13  A    between atoms: _22  and  _25
REMARK   14  A    between atoms: _25  and  _26
REMARK   15  A    between atoms: _29  and  _31
REMARK   16  A    between atoms: _31  and  _32
REMARK   17  A    between atoms: _31  and  _34
REMARK   18  A    between atoms: _34  and  _35
REMARK   19  A    between atoms: _38  and  _40
REMARK   20  A    between atoms: _40  and  _41
REMARK   21  A    between atoms: _40  and  _43
REMARK   22  A    between atoms: _43  and  _44
REMARK   23  A    between atoms: _49  and  _51
REMARK   24  A    between atoms: _51  and  _52
REMARK   25  A    between atoms: _55  and  _57
REMARK   26  A    between atoms: _57  and  _58
REMARK   27  A    between atoms: _57  and  _60
REMARK   28  A    between atoms: _60  and  _61
REMARK   29  A    between atoms: _64  and  _66
REMARK   30  A    between atoms: _66  and  _67
REMARK   31  A    between atoms: _66  and  _69
REMARK   32  A    between atoms: _72  and  _74
REMARK   33  A    between atoms: _74  and  _75
REMARK   34  A    between atoms: _74  and  _77
REMARK   35  A    between atoms: _77  and  _78
REMARK   36  A    between atoms: _78  and  _79
REMARK   37  A    between atoms: _79  and  _80
REMARK   38  A    between atoms: _89  and  _91
REMARK   39  A    between atoms: _91  and  _92
REMARK   40  A    between atoms: _91  and  _94
REMARK   41  A    between atoms: _94  and  _95
REMARK   42  A    between atoms: _98  and  _100
REMARK   43  A    between atoms: _100  and  _101
REMARK   44  A    between atoms: _100  and  _103
REMARK   45  A    between atoms: _103  and  _104
REMARK   46  A    between atoms: _107  and  _109
REMARK   47  A    between atoms: _109  and  _110
REMARK   48  A    between atoms: _109  and  _112
REMARK   49  A    between atoms: _112  and  _113
REMARK   50  A    between atoms: _113  and  _114
REMARK   51  A    between atoms: _119  and  _121
REMARK   52  A    between atoms: _121  and  _122
REMARK   53  A    between atoms: _121  and  _124
REMARK   54  A    between atoms: _127  and  _129
REMARK   55  A    between atoms: _129  and  _130
REMARK   56  A    between atoms: _129  and  _132
REMARK   57  A    between atoms: _132  and  _133
REMARK   58  A    between atoms: _136  and  _138
REMARK   59  A    between atoms: _138  and  _139
REMARK   60  A    between atoms: _138  and  _141
REMARK   61  A    between atoms: _141  and  _142
REMARK   62  A    between atoms: _142  and  _143
REMARK   63  A    between atoms: _145  and  _147
REMARK   64  A    between atoms: _147  and  _148
REMARK   65  A    between atoms: _147  and  _150
REMARK   66  A    between atoms: _150  and  _151
REMARK   67  A    between atoms: _151  and  _152
REMARK   68  A    between atoms: _155  and  _157
REMARK   69  A    between atoms: _157  and  _158
REMARK   70  A    between atoms: _157  and  _160
REMARK   71  A    between atoms: _160  and  _161
REMARK   72  A    between atoms: _164  and  _166
REMARK   73  A    between atoms: _166  and  _167
REMARK   74  A    between atoms: _166  and  _169
REMARK   75  A    between atoms: _169  and  _170
REMARK   76  A    between atoms: _173  and  _175
REMARK   77  A    between atoms: _175  and  _176
REMARK   78  A    between atoms: _175  and  _178
REMARK   79  A    between atoms: _178  and  _179
REMARK   80  A    between atoms: _184  and  _186
REMARK   81  A    between atoms: _186  and  _187
REMARK   82  A    between atoms: _190  and  _192
REMARK   83  A    between atoms: _192  and  _193
REMARK   84  A    between atoms: _192  and  _195
REMARK   85  A    between atoms: _195  and  _196
REMARK   86  A    between atoms: _199  and  _201
REMARK   87  A    between atoms: _201  and  _202
REMARK   88  A    between atoms: _201  and  _204
REMARK   89  A    between atoms: _207  and  _209
REMARK   90  A    between atoms: _209  and  _210
REMARK   91  A    between atoms: _209  and  _212
REMARK   92  A    between atoms: _212  and  _213
REMARK   93  A    between atoms: _213  and  _214
REMARK   94  A    between atoms: _214  and  _215
REMARK   95  A    between atoms: _224  and  _226
REMARK   96  A    between atoms: _226  and  _227
REMARK   97  A    between atoms: _226  and  _229
REMARK   98  A    between atoms: _229  and  _230
REMARK   99  A    between atoms: _233  and  _235
REMARK  100  A    between atoms: _235  and  _236
REMARK  101  A    between atoms: _235  and  _238
REMARK  102  A    between atoms: _238  and  _239
REMARK  103  A    between atoms: _242  and  _244
REMARK  104  A    between atoms: _244  and  _245
REMARK  105  A    between atoms: _244  and  _247
REMARK  106  A    between atoms: _247  and  _248
REMARK  107  A    between atoms: _248  and  _249
REMARK  108  A    between atoms: _254  and  _256
REMARK  109  A    between atoms: _256  and  _257
REMARK  110  A    between atoms: _256  and  _259
REMARK  111  A    between atoms: _262  and  _264
REMARK  112  A    between atoms: _264  and  _265
REMARK  113  A    between atoms: _264  and  _267
REMARK  114  A    between atoms: _267  and  _268
REMARK  115  A    between atoms: _271  and  _273
REMARK  116  A    between atoms: _273  and  _274
REMARK  117  A    between atoms: _273  and  _276
REMARK  118  A    between atoms: _276  and  _277
REMARK  119  A    between atoms: _277  and  _278
REMARK  120  A    between atoms: _280  and  _282
REMARK  121  A    between atoms: _282  and  _283
REMARK  122  A    between atoms: _282  and  _285
REMARK  123  A    between atoms: _285  and  _286
REMARK  124  A    between atoms: _286  and  _287
REMARK  125  A    between atoms: _290  and  _292
REMARK  126  A    between atoms: _292  and  _293
REMARK  127  A    between atoms: _292  and  _295
REMARK  128  A    between atoms: _295  and  _296
REMARK  129  A    between atoms: _299  and  _301
REMARK  130  A    between atoms: _301  and  _302
REMARK  131  A    between atoms: _301  and  _304
REMARK  132  A    between atoms: _304  and  _305
REMARK  133  A    between atoms: _308  and  _310
REMARK  134  A    between atoms: _310  and  _311
REMARK  135  A    between atoms: _310  and  _313
REMARK  136  A    between atoms: _313  and  _314
REMARK  137  A    between atoms: _319  and  _321
REMARK  138  A    between atoms: _321  and  _322
REMARK  139  A    between atoms: _325  and  _327
REMARK  140  A    between atoms: _327  and  _328
REMARK  141  A    between atoms: _327  and  _330
REMARK  142  A    between atoms: _330  and  _331
REMARK  143  A    between atoms: _334  and  _336
REMARK  144  A    between atoms: _336  and  _337
REMARK  145  A    between atoms: _336  and  _339
REMARK  146  A    between atoms: _342  and  _344
REMARK  147  A    between atoms: _344  and  _345
REMARK  148  A    between atoms: _344  and  _347
REMARK  149  A    between atoms: _347  and  _348
REMARK  150  A    between atoms: _348  and  _349
REMARK  151  A    between atoms: _349  and  _350
REMARK  152  A    between atoms: _359  and  _361
REMARK  153  A    between atoms: _361  and  _362
REMARK  154  A    between atoms: _361  and  _364
REMARK  155  A    between atoms: _364  and  _365
REMARK  156  A    between atoms: _368  and  _370
REMARK  157  A    between atoms: _370  and  _371
REMARK  158  A    between atoms: _370  and  _373
REMARK  159  A    between atoms: _373  and  _374
REMARK  160  A    between atoms: _377  and  _379
REMARK  161  A    between atoms: _379  and  _380
REMARK  162  A    between atoms: _379  and  _382
REMARK  163  A    between atoms: _382  and  _383
REMARK  164  A    between atoms: _383  and  _384
REMARK  165  A    between atoms: _389  and  _391
REMARK  166  A    between atoms: _391  and  _392
REMARK  167  A    between atoms: _391  and  _394
REMARK  168  A    between atoms: _397  and  _399
REMARK  169  A    between atoms: _399  and  _400
REMARK  170  A    between atoms: _399  and  _402
REMARK  171  A    between atoms: _402  and  _403
REMARK  172  A    between atoms: _406  and  _408
REMARK  173  A    between atoms: _408  and  _409
REMARK  174  A    between atoms: _408  and  _411
REMARK  175  A    between atoms: _411  and  _412
REMARK  176  A    between atoms: _412  and  _413
REMARK  177  A    between atoms: _415  and  _417
REMARK  178  A    between atoms: _417  and  _418
REMARK  179  A    between atoms: _417  and  _420
REMARK  180  A    between atoms: _420  and  _421
REMARK  181  A    between atoms: _421  and  _422
REMARK  182  A    between atoms: _425  and  _427
REMARK  183  A    between atoms: _427  and  _428
REMARK  184  A    between atoms: _427  and  _430
REMARK  185  A    between atoms: _430  and  _431
REMARK  186  A    between atoms: _434  and  _436
REMARK  187  A    between atoms: _436  and  _437
REMARK  188  A    between atoms: _436  and  _439
REMARK  189  A    between atoms: _439  and  _440
REMARK  190  A    between atoms: _443  and  _445
REMARK  191  A    between atoms: _445  and  _446
REMARK  192  A    between atoms: _445  and  _448
REMARK  193  A    between atoms: _448  and  _449
REMARK  194  A    between atoms: _454  and  _456
REMARK  195  A    between atoms: _456  and  _457
REMARK  196  A    between atoms: _460  and  _462
REMARK  197  A    between atoms: _462  and  _463
REMARK  198  A    between atoms: _462  and  _465
REMARK  199  A    between atoms: _465  and  _466
REMARK  200  A    between atoms: _469  and  _471
REMARK  201  A    between atoms: _471  and  _472
REMARK  202  A    between atoms: _471  and  _474
REMARK  203  A    between atoms: _477  and  _479
REMARK  204  A    between atoms: _479  and  _480
REMARK  205  A    between atoms: _479  and  _482
REMARK  206  A    between atoms: _482  and  _483
REMARK  207  A    between atoms: _483  and  _484
REMARK  208  A    between atoms: _484  and  _485
REMARK  209  A    between atoms: _494  and  _496
REMARK  210  A    between atoms: _496  and  _497
REMARK  211  A    between atoms: _496  and  _499
REMARK  212  A    between atoms: _499  and  _500
REMARK  213  A    between atoms: _503  and  _505
REMARK  214  A    between atoms: _505  and  _506
REMARK  215  A    between atoms: _505  and  _508
REMARK  216  A    between atoms: _508  and  _509
REMARK  217  A    between atoms: _512  and  _514
REMARK  218  A    between atoms: _514  and  _515
REMARK  219  A    between atoms: _514  and  _517
REMARK  220  A    between atoms: _517  and  _518
REMARK  221  A    between atoms: _518  and  _519
REMARK  222  A    between atoms: _524  and  _526
REMARK  223  A    between atoms: _526  and  _527
REMARK  224  A    between atoms: _526  and  _529
REMARK  225  A    between atoms: _532  and  _534
REMARK  226  A    between atoms: _534  and  _535
REMARK  227  A    between atoms: _534  and  _537
REMARK  228  A    between atoms: _537  and  _538
REMARK  229  A    between atoms: _541  and  _543
REMARK  230  A    between atoms: _543  and  _544
REMARK  231  A    between atoms: _543  and  _546
REMARK  232  A    between atoms: _546  and  _547
REMARK  233  A    between atoms: _547  and  _548
REMARK  234  A    between atoms: _550  and  _552
REMARK  235  A    between atoms: _552  and  _553
REMARK  236  A    between atoms: _552  and  _555
REMARK  237  A    between atoms: _555  and  _556
REMARK  238  A    between atoms: _556  and  _557
REMARK  239  A    between atoms: _560  and  _562
REMARK  240  A    between atoms: _562  and  _563
REMARK  241  A    between atoms: _562  and  _565
REMARK  242  A    between atoms: _565  and  _566
REMARK  243  A    between atoms: _569  and  _571
REMARK  244  A    between atoms: _571  and  _572
REMARK  245  A    between atoms: _571  and  _574
REMARK  246  A    between atoms: _574  and  _575
REMARK  247  A    between atoms: _575  and  _576
REMARK  248  A    between atoms: _581  and  _583
REMARK  249  A    between atoms: _583  and  _584
REMARK  250  A    between atoms: _583  and  _586
REMARK  251  A    between atoms: _586  and  _587
REMARK  252  A    between atoms: _590  and  _592
REMARK  253  A    between atoms: _592  and  _593
REMARK  254  A    between atoms: _592  and  _595
REMARK  255  A    between atoms: _595  and  _596
REMARK  256  A    between atoms: _601  and  _603
REMARK  257  A    between atoms: _603  and  _604
REMARK  258  A    between atoms: _607  and  _609
REMARK  259  A    between atoms: _609  and  _610
REMARK  260  A    between atoms: _609  and  _612
REMARK  261  A    between atoms: _612  and  _613
REMARK  262  A    between atoms: _616  and  _618
REMARK  263  A    between atoms: _618  and  _619
REMARK  264  A    between atoms: _618  and  _621
REMARK  265  A    between atoms: _624  and  _626
REMARK  266  A    between atoms: _626  and  _627
REMARK  267  A    between atoms: _626  and  _629
REMARK  268  A    between atoms: _629  and  _630
REMARK  269  A    between atoms: _630  and  _631
REMARK  270  A    between atoms: _631  and  _632
REMARK  271  A    between atoms: _641  and  _643
REMARK  272  A    between atoms: _643  and  _644
REMARK  273  A    between atoms: _643  and  _646
REMARK  274  A    between atoms: _646  and  _647
REMARK  275  A    between atoms: _650  and  _652
REMARK  276  A    between atoms: _652  and  _653
REMARK  277  A    between atoms: _652  and  _655
REMARK  278  A    between atoms: _655  and  _656
REMARK  279  A    between atoms: _659  and  _661
REMARK  280  A    between atoms: _661  and  _662
REMARK  281  A    between atoms: _661  and  _664
REMARK  282  A    between atoms: _664  and  _665
REMARK  283  A    between atoms: _665  and  _666
REMARK  284  A    between atoms: _666  and  _667
REMARK  285  A    between atoms: _676  and  _678
REMARK  286  A    between atoms: _678  and  _679
REMARK  287  A    between atoms: _678  and  _681
REMARK  288  A    between atoms: _681  and  _682
REMARK  289  A    between atoms: _682  and  _683
REMARK  290  A    between atoms: _688  and  _690
REMARK  291  A    between atoms: _690  and  _691
REMARK  292  A    between atoms: _690  and  _693
REMARK  293  A    between atoms: _696  and  _698
REMARK  294  A    between atoms: _698  and  _699
REMARK  295  A    between atoms: _698  and  _701
REMARK  296  A    between atoms: _701  and  _702
REMARK                            x       y       z     vdW  Elec       q    Type
REMARK                         _______ _______ _______ _____ _____    ______ ____
ROOT
ATOM      1  CA  LEU A   2      11.891   6.202  -5.917  0.00  0.00    +0.149 C 
ENDROOT
BRANCH   1   4
ATOM      2  C   GLU A   1      10.042   5.843  -7.444  0.00  0.00    +0.238 C 
ATOM      3  O   GLU A   1       9.247   5.701  -6.513  0.00  0.00    -0.274 OA
ATOM      4  N   LEU A   2      11.336   6.081  -7.259  0.00  0.00    -0.297 N 
ATOM      5  H   LEU A   2      11.962   6.182  -8.084  0.00  0.00    +0.150 HD
BRANCH   2   6
ATOM      6  CA  GLU A   1       9.575   5.744  -8.889  0.00  0.00    +0.145 C 
BRANCH   6   7
ATOM      7  N   GLU A   1      10.259   6.737  -9.722  0.00  0.00    -0.238 NA
ATOM      8  H   GLU A   1      10.874   6.421 -10.499  0.00  0.00    +0.142 HD
ENDBRANCH   6   7
BRANCH   6   9
ATOM      9  CB  GLU A   1       9.834   4.324  -9.399  0.00  0.00    +0.038 C 
BRANCH   9  10
ATOM     10  CG  GLU A   1       9.246   4.026 -10.765  0.00  0.00    +0.116 C 
BRANCH  10  11
ATOM     11  CD  GLU A   1       7.771   4.360 -10.855  0.00  0.00    +0.365 C 
ATOM     12  OE2 GLU A   1       6.987   3.877 -10.002  0.00  0.00    -0.246 OA
ATOM     13  OE1 GLU A   1       7.397   5.107 -11.784  0.00  0.00    -0.246 OA
ENDBRANCH  10  11
ENDBRANCH   9  10
ENDBRANCH   6   9
ENDBRANCH   2   6
ENDBRANCH   1   4
BRANCH   1  14
ATOM     14  C   LEU A   2      11.342   7.441  -5.209  0.00  0.00    +0.241 C 
ATOM     15  O   LEU A   2      11.034   7.401  -4.018  0.00  0.00    -0.273 OA
ATOM     16  N   GLN A   3      11.219   8.545  -5.940  0.00  0.00    -0.298 N 
ATOM     17  H   GLN A   3      11.494   8.535  -6.943  0.00  0.00    +0.150 HD
BRANCH  16  18
ATOM     18  CA  GLN A   3      10.700   9.770  -5.343  0.00  0.00    +0.137 C 
BRANCH  18  19
ATOM     19  C   GLN A   3       9.239   9.609  -4.945  0.00  0.00    +0.227 C 
ATOM     20  O   GLN A   3       8.822  10.097  -3.901  0.00  0.00    -0.286 OA
ENDBRANCH  18  19
BRANCH  18  21
ATOM     21  CB  GLN A   3      10.856  10.949  -6.308  0.00  0.00    +0.037 C 
BRANCH  21  22
ATOM     22  CG  GLN A   3      12.298  11.227  -6.694  0.00  0.00    +0.087 C 
BRANCH  22  23
ATOM     23  CD  GLN A   3      12.449  12.511  -7.484  0.00  0.00    +0.219 C 
ATOM     24  NE2 GLN A   3      13.457  13.305  -7.143  0.00  0.00    -0.329 N 
ATOM     25 HE21 GLN A   3      14.089  13.037  -6.362  0.00  0.00    +0.145 HD
ATOM     26 HE22 GLN A   3      13.615  14.195  -7.657  0.00  0.00    +0.145 HD
ATOM     27  OE1 GLN A   3      11.675  12.779  -8.396  0.00  0.00    -0.275 OA
ENDBRANCH  22  23
ENDBRANCH  21  22
ENDBRANCH  18  21
ENDBRANCH  16  18
ENDBRANCH   1  14
BRANCH   1  28
ATOM     28  CB  LEU A   2      13.421   6.268  -5.984  0.00  0.00    +0.029 C 
BRANCH  28  29
ATOM     29  CG  LEU A   2      14.116   5.026  -6.550  0.00  0.00    +0.002 C 
ATOM     30  CD2 LEU A   2      13.689   3.792  -5.766  0.00  0.00    +0.000 C 
ATOM     31  CD1 LEU A   2      15.621   5.212  -6.481  0.00  0.00    +0.000 C 
ENDBRANCH  28  29
ENDBRANCH   1  28
TORSDOF 14
REMARK  Name = ../refined-set-2016/3v2p/3v2p_pocket.pdb
REMARK  296 active torsions:
REMARK  status: ('A' for Active; 'I' for Inactive)
REMARK    1  A    between atoms: _1  and  _3
REMARK    2  A    between atoms: _3  and  _4
REMARK    3  A    between atoms: _3  and  _6
REMARK    4  A    between atoms: _6  and  _7
REMARK    5  A    between atoms: _7  and  _8
REMARK    6  A    between atoms: _10  and  _12
REMARK    7  A    between atoms: _12  and  _13
REMARK    8  A    between atoms: _12  and  _15
REMARK    9  A    between atoms: _15  and  _16
REMARK   10  A    between atoms: _16  and  _17
REMARK   11  A    between atoms: _20  and  _22
REMARK   12  A    between atoms: _22  and  _23
REMARK   13  A    between atoms: _22  and  _25
REMARK   14  A    between atoms: _25  and  _26
REMARK   15  A    between atoms: _29  and  _31
REMARK   16  A    between atoms: _31  and  _32
REMARK   17  A    between atoms: _31  and  _34
REMARK   18  A    between atoms: _34  and  _35
REMARK   19  A    between atoms: _38  and  _40
REMARK   20  A    between atoms: _40  and  _41
REMARK   21  A    between atoms: _40  and  _43
REMARK   22  A    between atoms: _43  and  _44
REMARK   23  A    between atoms: _49  and  _51
REMARK   24  A    between atoms: _51  and  _52
REMARK   25  A    between atoms: _55  and  _57
REMARK   26  A    between atoms: _57  and  _58
REMARK   27  A    between atoms: _57  and  _60
REMARK   28  A    between atoms: _60  and  _61
REMARK   29  A    between atoms: _64  and  _66
REMARK   30  A    between atoms: _66  and  _67
REMARK   31  A    between atoms: _66  and  _69
REMARK   32  A    between atoms: _72  and  _74
REMARK   33  A    between atoms: _74  and  _75
REMARK   34  A    between atoms: _74  and  _77
REMARK   35  A    between atoms: _77  and  _78
REMARK   36  A    between atoms: _78  and  _79
REMARK   37  A    between atoms: _79  and  _80
REMARK   38  A    between atoms: _89  and  _91
REMARK   39  A    between atoms: _91  and  _92
REMARK   40  A    between atoms: _91  and  _94
REMARK   41  A    between atoms: _94  and  _95
REMARK   42  A    between atoms: _98  and  _100
REMARK   43  A    between atoms: _100  and  _101
REMARK   44  A    between atoms: _100  and  _103
REMARK   45  A    between atoms: _103  and  _104
REMARK   46  A    between atoms: _107  and  _109
REMARK   47  A    between atoms: _109  and  _110
REMARK   48  A    between atoms: _109  and  _112
REMARK   49  A    between atoms: _112  and  _113
REMARK   50  A    between atoms: _113  and  _114
REMARK   51  A    between atoms: _119  and  _121
REMARK   52  A    between atoms: _121  and  _122
REMARK   53  A    between atoms: _121  and  _124
REMARK   54  A    between atoms: _127  and  _129
REMARK   55  A    between atoms: _129  and  _130
REMARK   56  A    between atoms: _129  and  _132
REMARK   57  A    between atoms: _132  and  _133
REMARK   58  A    between atoms: _136  and  _138
REMARK   59  A    between atoms: _138  and  _139
REMARK   60  A    between atoms: _138  and  _141
REMARK   61  A    between atoms: _141  and  _142
REMARK   62  A    between atoms: _142  and  _143
REMARK   63  A    between atoms: _145  and  _147
REMARK   64  A    between atoms: _147  and  _148
REMARK   65  A    between atoms: _147  and  _150
REMARK   66  A    between atoms: _150  and  _151
REMARK   67  A    between atoms: _151  and  _152
REMARK   68  A    between atoms: _155  and  _157
REMARK   69  A    between atoms: _157  and  _158
REMARK   70  A    between atoms: _157  and  _160
REMARK   71  A    between atoms: _160  and  _161
REMARK   72  A    between atoms: _164  and  _166
REMARK   73  A    between atoms: _166  and  _167
REMARK   74  A    between atoms: _166  and  _169
REMARK   75  A    between atoms: _169  and  _170
REMARK   76  A    between atoms: _173  and  _175
REMARK   77  A    between atoms: _175  and  _176
REMARK   78  A    between atoms: _175  and  _178
REMARK   79  A    between atoms: _178  and  _179
REMARK   80  A    between atoms: _184  and  _186
REMARK   81  A    between atoms: _186  and  _187
REMARK   82  A    between atoms: _190  and  _192
REMARK   83  A    between atoms: _192  and  _193
REMARK   84  A    between atoms: _192  and  _195
REMARK   85  A    between atoms: _195  and  _196
REMARK   86  A    between atoms: _199  and  _201
REMARK   87  A    between atoms: _201  and  _202
REMARK   88  A    between atoms: _201  and  _204
REMARK   89  A    between atoms: _207  and  _209
REMARK   90  A    between atoms: _209  and  _210
REMARK   91  A    between atoms: _209  and  _212
REMARK   92  A    between atoms: _212  and  _213
REMARK   93  A    between atoms: _213  and  _214
REMARK   94  A    between atoms: _214  and  _215
REMARK   95  A    between atoms: _224  and  _226
REMARK   96  A    between atoms: _226  and  _227
REMARK   97  A    between atoms: _226  and  _229
REMARK   98  A    between atoms: _229  and  _230
REMARK   99  A    between atoms: _233  and  _235
REMARK  100  A    between atoms: _235  and  _236
REMARK  101  A    between atoms: _235  and  _238
REMARK  102  A    between atoms: _238  and  _239
REMARK  103  A    between atoms: _242  and  _244
REMARK  104  A    between atoms: _244  and  _245
REMARK  105  A    between atoms: _244  and  _247
REMARK  106  A    between atoms: _247  and  _248
REMARK  107  A    between atoms: _248  and  _249
REMARK  108  A    between atoms: _254  and  _256
REMARK  109  A    between atoms: _256  and  _257
REMARK  110  A    between atoms: _256  and  _259
REMARK  111  A    between atoms: _262  and  _264
REMARK  112  A    between atoms: _264  and  _265
REMARK  113  A    between atoms: _264  and  _267
REMARK  114  A    between atoms: _267  and  _268
REMARK  115  A    between atoms: _271  and  _273
REMARK  116  A    between atoms: _273  and  _274
REMARK  117  A    between atoms: _273  and  _276
REMARK  118  A    between atoms: _276  and  _277
REMARK  119  A    between atoms: _277  and  _278
REMARK  120  A    between atoms: _280  and  _282
REMARK  121  A    between atoms: _282  and  _283
REMARK  122  A    between atoms: _282  and  _285
REMARK  123  A    between atoms: _285  and  _286
REMARK  124  A    between atoms: _286  and  _287
REMARK  125  A    between atoms: _290  and  _292
REMARK  126  A    between atoms: _292  and  _293
REMARK  127  A    between atoms: _292  and  _295
REMARK  128  A    between atoms: _295  and  _296
REMARK  129  A    between atoms: _299  and  _301
REMARK  130  A    between atoms: _301  and  _302
REMARK  131  A    between atoms: _301  and  _304
REMARK  132  A    between atoms: _304  and  _305
REMARK  133  A    between atoms: _308  and  _310
REMARK  134  A    between atoms: _310  and  _311
REMARK  135  A    between atoms: _310  and  _313
REMARK  136  A    between atoms: _313  and  _314
REMARK  137  A    between atoms: _319  and  _321
REMARK  138  A    between atoms: _321  and  _322
REMARK  139  A    between atoms: _325  and  _327
REMARK  140  A    between atoms: _327  and  _328
REMARK  141  A    between atoms: _327  and  _330
REMARK  142  A    between atoms: _330  and  _331
REMARK  143  A    between atoms: _334  and  _336
REMARK  144  A    between atoms: _336  and  _337
REMARK  145  A    between atoms: _336  and  _339
REMARK  146  A    between atoms: _342  and  _344
REMARK  147  A    between atoms: _344  and  _345
REMARK  148  A    between atoms: _344  and  _347
REMARK  149  A    between atoms: _347  and  _348
REMARK  150  A    between atoms: _348  and  _349
REMARK  151  A    between atoms: _349  and  _350
REMARK  152  A    between atoms: _359  and  _361
REMARK  153  A    between atoms: _361  and  _362
REMARK  154  A    between atoms: _361  and  _364
REMARK  155  A    between atoms: _364  and  _365
REMARK  156  A    between atoms: _368  and  _370
REMARK  157  A    between atoms: _370  and  _371
REMARK  158  A    between atoms: _370  and  _373
REMARK  159  A    between atoms: _373  and  _374
REMARK  160  A    between atoms: _377  and  _379
REMARK  161  A    between atoms: _379  and  _380
REMARK  162  A    between atoms: _379  and  _382
REMARK  163  A    between atoms: _382  and  _383
REMARK  164  A    between atoms: _383  and  _384
REMARK  165  A    between atoms: _389  and  _391
REMARK  166  A    between atoms: _391  and  _392
REMARK  167  A    between atoms: _391  and  _394
REMARK  168  A    between atoms: _397  and  _399
REMARK  169  A    between atoms: _399  and  _400
REMARK  170  A    between atoms: _399  and  _402
REMARK  171  A    between atoms: _402  and  _403
REMARK  172  A    between atoms: _406  and  _408
REMARK  173  A    between atoms: _408  and  _409
REMARK  174  A    between atoms: _408  and  _411
REMARK  175  A    between atoms: _411  and  _412
REMARK  176  A    between atoms: _412  and  _413
REMARK  177  A    between atoms: _415  and  _417
REMARK  178  A    between atoms: _417  and  _418
REMARK  179  A    between atoms: _417  and  _420
REMARK  180  A    between atoms: _420  and  _421
REMARK  181  A    between atoms: _421  and  _422
REMARK  182  A    between atoms: _425  and  _427
REMARK  183  A    between atoms: _427  and  _428
REMARK  184  A    between atoms: _427  and  _430
REMARK  185  A    between atoms: _430  and  _431
REMARK  186  A    between atoms: _434  and  _436
REMARK  187  A    between atoms: _436  and  _437
REMARK  188  A    between atoms: _436  and  _439
REMARK  189  A    between atoms: _439  and  _440
REMARK  190  A    between atoms: _443  and  _445
REMARK  191  A    between atoms: _445  and  _446
REMARK  192  A    between atoms: _445  and  _448
REMARK  193  A    between atoms: _448  and  _449
REMARK  194  A    between atoms: _454  and  _456
REMARK  195  A    between atoms: _456  and  _457
REMARK  196  A    between atoms: _460  and  _462
REMARK  197  A    between atoms: _462  and  _463
REMARK  198  A    between atoms: _462  and  _465
REMARK  199  A    between atoms: _465  and  _466
REMARK  200  A    between atoms: _469  and  _471
REMARK  201  A    between atoms: _471  and  _472
REMARK  202  A    between atoms: _471  and  _474
REMARK  203  A    between atoms: _477  and  _479
REMARK  204  A    between atoms: _479  and  _480
REMARK  205  A    between atoms: _479  and  _482
REMARK  206  A    between atoms: _482  and  _483
REMARK  207  A    between atoms: _483  and  _484
REMARK  208  A    between atoms: _484  and  _485
REMARK  209  A    between atoms: _494  and  _496
REMARK  210  A    between atoms: _496  and  _497
REMARK  211  A    between atoms: _496  and  _499
REMARK  212  A    between atoms: _499  and  _500
REMARK  213  A    between atoms: _503  and  _505
REMARK  214  A    between atoms: _505  and  _506
REMARK  215  A    between atoms: _505  and  _508
REMARK  216  A    between atoms: _508  and  _509
REMARK  217  A    between atoms: _512  and  _514
REMARK  218  A    between atoms: _514  and  _515
REMARK  219  A    between atoms: _514  and  _517
REMARK  220  A    between atoms: _517  and  _518
REMARK  221  A    between atoms: _518  and  _519
REMARK  222  A    between atoms: _524  and  _526
REMARK  223  A    between atoms: _526  and  _527
REMARK  224  A    between atoms: _526  and  _529
REMARK  225  A    between atoms: _532  and  _534
REMARK  226  A    between atoms: _534  and  _535
REMARK  227  A    between atoms: _534  and  _537
REMARK  228  A    between atoms: _537  and  _538
REMARK  229  A    between atoms: _541  and  _543
REMARK  230  A    between atoms: _543  and  _544
REMARK  231  A    between atoms: _543  and  _546
REMARK  232  A    between atoms: _546  and  _547
REMARK  233  A    between atoms: _547  and  _548
REMARK  234  A    between atoms: _550  and  _552
REMARK  235  A    between atoms: _552  and  _553
REMARK  236  A    between atoms: _552  and  _555
REMARK  237  A    between atoms: _555  and  _556
REMARK  238  A    between atoms: _556  and  _557
REMARK  239  A    between atoms: _560  and  _562
REMARK  240  A    between atoms: _562  and  _563
REMARK  241  A    between atoms: _562  and  _565
REMARK  242  A    between atoms: _565  and  _566
REMARK  243  A    between atoms: _569  and  _571
REMARK  244  A    between atoms: _571  and  _572
REMARK  245  A    between atoms: _571  and  _574
REMARK  246  A    between atoms: _574  and  _575
REMARK  247  A    between atoms: _575  and  _576
REMARK  248  A    between atoms: _581  and  _583
REMARK  249  A    between atoms: _583  and  _584
REMARK  250  A    between atoms: _583  and  _586
REMARK  251  A    between atoms: _586  and  _587
REMARK  252  A    between atoms: _590  and  _592
REMARK  253  A    between atoms: _592  and  _593
REMARK  254  A    between atoms: _592  and  _595
REMARK  255  A    between atoms: _595  and  _596
REMARK  256  A    between atoms: _601  and  _603
REMARK  257  A    between atoms: _603  and  _604
REMARK  258  A    between atoms: _607  and  _609
REMARK  259  A    between atoms: _609  and  _610
REMARK  260  A    between atoms: _609  and  _612
REMARK  261  A    between atoms: _612  and  _613
REMARK  262  A    between atoms: _616  and  _618
REMARK  263  A    between atoms: _618  and  _619
REMARK  264  A    between atoms: _618  and  _621
REMARK  265  A    between atoms: _624  and  _626
REMARK  266  A    between atoms: _626  and  _627
REMARK  267  A    between atoms: _626  and  _629
REMARK  268  A    between atoms: _629  and  _630
REMARK  269  A    between atoms: _630  and  _631
REMARK  270  A    between atoms: _631  and  _632
REMARK  271  A    between atoms: _641  and  _643
REMARK  272  A    between atoms: _643  and  _644
REMARK  273  A    between atoms: _643  and  _646
REMARK  274  A    between atoms: _646  and  _647
REMARK  275  A    between atoms: _650  and  _652
REMARK  276  A    between atoms: _652  and  _653
REMARK  277  A    between atoms: _652  and  _655
REMARK  278  A    between atoms: _655  and  _656
REMARK  279  A    between atoms: _659  and  _661
REMARK  280  A    between atoms: _661  and  _662
REMARK  281  A    between atoms: _661  and  _664
REMARK  282  A    between atoms: _664  and  _665
REMARK  283  A    between atoms: _665  and  _666
REMARK  284  A    between atoms: _666  and  _667
REMARK  285  A    between atoms: _676  and  _678
REMARK  286  A    between atoms: _678  and  _679
REMARK  287  A    between atoms: _678  and  _681
REMARK  288  A    between atoms: _681  and  _682
REMARK  289  A    between atoms: _682  and  _683
REMARK  290  A    between atoms: _688  and  _690
REMARK  291  A    between atoms: _690  and  _691
REMARK  292  A    between atoms: _690  and  _693
REMARK  293  A    between atoms: _696  and  _698
REMARK  294  A    between atoms: _698  and  _699
REMARK  295  A    between atoms: _698  and  _701
REMARK  296  A    between atoms: _701  and  _702
REMARK                            x       y       z     vdW  Elec       q    Type
REMARK                         _______ _______ _______ _____ _____    ______ ____
ROOT
ATOM      1  C   THR A   1       8.186   6.649  -1.717  0.00  0.00    +0.241 C 
ATOM      2  O   THR A   1       7.553   6.433  -0.683  0.00  0.00    -0.274 OA
ATOM      3  N   ASN A   2       9.180   7.526  -1.780  0.00  0.00    -0.298 N 
ATOM      4  H   ASN A   2       9.696   7.659  -2.673  0.00  0.00    +0.150 HD
ENDROOT
BRANCH   1   5
ATOM      5  CA  THR A   1       7.861   5.897  -3.006  0.00  0.00    +0.172 C 
BRANCH   5   6
ATOM      6  N   THR A   1       7.847   6.816  -4.146  0.00  0.00    -0.236 NA
ATOM      7  H   THR A   1       8.536   6.691  -4.915  0.00  0.00    +0.142 HD
ENDBRANCH   5   6
BRANCH   5   8
ATOM      8  CB  THR A   1       8.901   4.783  -3.205  0.00  0.00    +0.135 C 
ATOM      9  CG2 THR A   1       9.028   3.929  -1.946  0.00  0.00    +0.034 C 
BRANCH   8  10
ATOM     10  OG1 THR A   1       8.487   3.956  -4.295  0.00  0.00    -0.383 OA
ATOM     11  HG1 THR A   1       9.151   3.235  -4.431  0.00  0.00    +0.210 HD
ENDBRANCH   8  10
ENDBRANCH   5   8
ENDBRANCH   1   5
BRANCH   3  12
ATOM     12  CA  ASN A   2       9.552   8.301  -0.610  0.00  0.00    +0.146 C 
BRANCH  12  13
ATOM     13  C   ASN A   2       8.409   9.190  -0.160  0.00  0.00    +0.227 C 
ATOM     14  O   ASN A   2       8.150   9.310   1.039  0.00  0.00    -0.286 OA
ENDBRANCH  12  13
BRANCH  12  15
ATOM     15  CB  ASN A   2      10.800   9.138  -0.889  0.00  0.00    +0.112 C 
BRANCH  15  16
ATOM     16  CG  ASN A   2      12.075   8.357  -0.657  0.00  0.00    +0.222 C 
ATOM     17  OD1 ASN A   2      12.180   7.614   0.317  0.00  0.00    -0.275 OA
ATOM     18  ND2 ASN A   2      13.051   8.522  -1.541  0.00  0.00    -0.329 N 
ATOM     19 HD21 ASN A   2      13.950   8.012  -1.425  0.00  0.00    +0.145 HD
ATOM     20 HD22 ASN A   2      12.917   9.161  -2.350  0.00  0.00    +0.145 HD
ENDBRANCH  15  16
ENDBRANCH  12  15
ENDBRANCH   3  12
TORSDOF 8
REMARK  Name = ../refined-set-2016/3v2p/3v2p_pocket.pdb
REMARK  296 active torsions:
REMARK  status: ('A' for Active; 'I' for Inactive)
REMARK    1  A    between atoms: _1  and  _3
REMARK    2  A    between atoms: _3  and  _4
REMARK    3  A    between atoms: _3  and  _6
REMARK    4  A    between atoms: _6  and  _7
REMARK    5  A    between atoms: _7  and  _8
REMARK    6  A    between atoms: _10  and  _12
REMARK    7  A    between atoms: _12  and  _13
REMARK    8  A    between atoms: _12  and  _15
REMARK    9  A    between atoms: _15  and  _16
REMARK   10  A    between atoms: _16  and  _17
REMARK   11  A    between atoms: _20  and  _22
REMARK   12  A    between atoms: _22  and  _23
REMARK   13  A    between atoms: _22  and  _25
REMARK   14  A    between atoms: _25  and  _26
REMARK   15  A    between atoms: _29  and  _31
REMARK   16  A    between atoms: _31  and  _32
REMARK   17  A    between atoms: _31  and  _34
REMARK   18  A    between atoms: _34  and  _35
REMARK   19  A    between atoms: _38  and  _40
REMARK   20  A    between atoms: _40  and  _41
REMARK   21  A    between atoms: _40  and  _43
REMARK   22  A    between atoms: _43  and  _44
REMARK   23  A    between atoms: _49  and  _51
REMARK   24  A    between atoms: _51  and  _52
REMARK   25  A    between atoms: _55  and  _57
REMARK   26  A    between atoms: _57  and  _58
REMARK   27  A    between atoms: _57  and  _60
REMARK   28  A    between atoms: _60  and  _61
REMARK   29  A    between atoms: _64  and  _66
REMARK   30  A    between atoms: _66  and  _67
REMARK   31  A    between atoms: _66  and  _69
REMARK   32  A    between atoms: _72  and  _74
REMARK   33  A    between atoms: _74  and  _75
REMARK   34  A    between atoms: _74  and  _77
REMARK   35  A    between atoms: _77  and  _78
REMARK   36  A    between atoms: _78  and  _79
REMARK   37  A    between atoms: _79  and  _80
REMARK   38  A    between atoms: _89  and  _91
REMARK   39  A    between atoms: _91  and  _92
REMARK   40  A    between atoms: _91  and  _94
REMARK   41  A    between atoms: _94  and  _95
REMARK   42  A    between atoms: _98  and  _100
REMARK   43  A    between atoms: _100  and  _101
REMARK   44  A    between atoms: _100  and  _103
REMARK   45  A    between atoms: _103  and  _104
REMARK   46  A    between atoms: _107  and  _109
REMARK   47  A    between atoms: _109  and  _110
REMARK   48  A    between atoms: _109  and  _112
REMARK   49  A    between atoms: _112  and  _113
REMARK   50  A    between atoms: _113  and  _114
REMARK   51  A    between atoms: _119  and  _121
REMARK   52  A    between atoms: _121  and  _122
REMARK   53  A    between atoms: _121  and  _124
REMARK   54  A    between atoms: _127  and  _129
REMARK   55  A    between atoms: _129  and  _130
REMARK   56  A    between atoms: _129  and  _132
REMARK   57  A    between atoms: _132  and  _133
REMARK   58  A    between atoms: _136  and  _138
REMARK   59  A    between atoms: _138  and  _139
REMARK   60  A    between atoms: _138  and  _141
REMARK   61  A    between atoms: _141  and  _142
REMARK   62  A    between atoms: _142  and  _143
REMARK   63  A    between atoms: _145  and  _147
REMARK   64  A    between atoms: _147  and  _148
REMARK   65  A    between atoms: _147  and  _150
REMARK   66  A    between atoms: _150  and  _151
REMARK   67  A    between atoms: _151  and  _152
REMARK   68  A    between atoms: _155  and  _157
REMARK   69  A    between atoms: _157  and  _158
REMARK   70  A    between atoms: _157  and  _160
REMARK   71  A    between atoms: _160  and  _161
REMARK   72  A    between atoms: _164  and  _166
REMARK   73  A    between atoms: _166  and  _167
REMARK   74  A    between atoms: _166  and  _169
REMARK   75  A    between atoms: _169  and  _170
REMARK   76  A    between atoms: _173  and  _175
REMARK   77  A    between atoms: _175  and  _176
REMARK   78  A    between atoms: _175  and  _178
REMARK   79  A    between atoms: _178  and  _179
REMARK   80  A    between atoms: _184  and  _186
REMARK   81  A    between atoms: _186  and  _187
REMARK   82  A    between atoms: _190  and  _192
REMARK   83  A    between atoms: _192  and  _193
REMARK   84  A    between atoms: _192  and  _195
REMARK   85  A    between atoms: _195  and  _196
REMARK   86  A    between atoms: _199  and  _201
REMARK   87  A    between atoms: _201  and  _202
REMARK   88  A    between atoms: _201  and  _204
REMARK   89  A    between atoms: _207  and  _209
REMARK   90  A    between atoms: _209  and  _210
REMARK   91  A    between atoms: _209  and  _212
REMARK   92  A    between atoms: _212  and  _213
REMARK   93  A    between atoms: _213  and  _214
REMARK   94  A    between atoms: _214  and  _215
REMARK   95  A    between atoms: _224  and  _226
REMARK   96  A    between atoms: _226  and  _227
REMARK   97  A    between atoms: _226  and  _229
REMARK   98  A    between atoms: _229  and  _230
REMARK   99  A    between atoms: _233  and  _235
REMARK  100  A    between atoms: _235  and  _236
REMARK  101  A    between atoms: _235  and  _238
REMARK  102  A    between atoms: _238  and  _239
REMARK  103  A    between atoms: _242  and  _244
REMARK  104  A    between atoms: _244  and  _245
REMARK  105  A    between atoms: _244  and  _247
REMARK  106  A    between atoms: _247  and  _248
REMARK  107  A    between atoms: _248  and  _249
REMARK  108  A    between atoms: _254  and  _256
REMARK  109  A    between atoms: _256  and  _257
REMARK  110  A    between atoms: _256  and  _259
REMARK  111  A    between atoms: _262  and  _264
REMARK  112  A    between atoms: _264  and  _265
REMARK  113  A    between atoms: _264  and  _267
REMARK  114  A    between atoms: _267  and  _268
REMARK  115  A    between atoms: _271  and  _273
REMARK  116  A    between atoms: _273  and  _274
REMARK  117  A    between atoms: _273  and  _276
REMARK  118  A    between atoms: _276  and  _277
REMARK  119  A    between atoms: _277  and  _278
REMARK  120  A    between atoms: _280  and  _282
REMARK  121  A    between atoms: _282  and  _283
REMARK  122  A    between atoms: _282  and  _285
REMARK  123  A    between atoms: _285  and  _286
REMARK  124  A    between atoms: _286  and  _287
REMARK  125  A    between atoms: _290  and  _292
REMARK  126  A    between atoms: _292  and  _293
REMARK  127  A    between atoms: _292  and  _295
REMARK  128  A    between atoms: _295  and  _296
REMARK  129  A    between atoms: _299  and  _301
REMARK  130  A    between atoms: _301  and  _302
REMARK  131  A    between atoms: _301  and  _304
REMARK  132  A    between atoms: _304  and  _305
REMARK  133  A    between atoms: _308  and  _310
REMARK  134  A    between atoms: _310  and  _311
REMARK  135  A    between atoms: _310  and  _313
REMARK  136  A    between atoms: _313  and  _314
REMARK  137  A    between atoms: _319  and  _321
REMARK  138  A    between atoms: _321  and  _322
REMARK  139  A    between atoms: _325  and  _327
REMARK  140  A    between atoms: _327  and  _328
REMARK  141  A    between atoms: _327  and  _330
REMARK  142  A    between atoms: _330  and  _331
REMARK  143  A    between atoms: _334  and  _336
REMARK  144  A    between atoms: _336  and  _337
REMARK  145  A    between atoms: _336  and  _339
REMARK  146  A    between atoms: _342  and  _344
REMARK  147  A    between atoms: _344  and  _345
REMARK  148  A    between atoms: _344  and  _347
REMARK  149  A    between atoms: _347  and  _348
REMARK  150  A    between atoms: _348  and  _349
REMARK  151  A    between atoms: _349  and  _350
REMARK  152  A    between atoms: _359  and  _361
REMARK  153  A    between atoms: _361  and  _362
REMARK  154  A    between atoms: _361  and  _364
REMARK  155  A    between atoms: _364  and  _365
REMARK  156  A    between atoms: _368  and  _370
REMARK  157  A    between atoms: _370  and  _371
REMARK  158  A    between atoms: _370  and  _373
REMARK  159  A    between atoms: _373  and  _374
REMARK  160  A    between atoms: _377  and  _379
REMARK  161  A    between atoms: _379  and  _380
REMARK  162  A    between atoms: _379  and  _382
REMARK  163  A    between atoms: _382  and  _383
REMARK  164  A    between atoms: _383  and  _384
REMARK  165  A    between atoms: _389  and  _391
REMARK  166  A    between atoms: _391  and  _392
REMARK  167  A    between atoms: _391  and  _394
REMARK  168  A    between atoms: _397  and  _399
REMARK  169  A    between atoms: _399  and  _400
REMARK  170  A    between atoms: _399  and  _402
REMARK  171  A    between atoms: _402  and  _403
REMARK  172  A    between atoms: _406  and  _408
REMARK  173  A    between atoms: _408  and  _409
REMARK  174  A    between atoms: _408  and  _411
REMARK  175  A    between atoms: _411  and  _412
REMARK  176  A    between atoms: _412  and  _413
REMARK  177  A    between atoms: _415  and  _417
REMARK  178  A    between atoms: _417  and  _418
REMARK  179  A    between atoms: _417  and  _420
REMARK  180  A    between atoms: _420  and  _421
REMARK  181  A    between atoms: _421  and  _422
REMARK  182  A    between atoms: _425  and  _427
REMARK  183  A    between atoms: _427  and  _428
REMARK  184  A    between atoms: _427  and  _430
REMARK  185  A    between atoms: _430  and  _431
REMARK  186  A    between atoms: _434  and  _436
REMARK  187  A    between atoms: _436  and  _437
REMARK  188  A    between atoms: _436  and  _439
REMARK  189  A    between atoms: _439  and  _440
REMARK  190  A    between atoms: _443  and  _445
REMARK  191  A    between atoms: _445  and  _446
REMARK  192  A    between atoms: _445  and  _448
REMARK  193  A    between atoms: _448  and  _449
REMARK  194  A    between atoms: _454  and  _456
REMARK  195  A    between atoms: _456  and  _457
REMARK  196  A    between atoms: _460  and  _462
REMARK  197  A    between atoms: _462  and  _463
REMARK  198  A    between atoms: _462  and  _465
REMARK  199  A    between atoms: _465  and  _466
REMARK  200  A    between atoms: _469  and  _471
REMARK  201  A    between atoms: _471  and  _472
REMARK  202  A    between atoms: _471  and  _474
REMARK  203  A    between atoms: _477  and  _479
REMARK  204  A    between atoms: _479  and  _480
REMARK  205  A    between atoms: _479  and  _482
REMARK  206  A    between atoms: _482  and  _483
REMARK  207  A    between atoms: _483  and  _484
REMARK  208  A    between atoms: _484  and  _485
REMARK  209  A    between atoms: _494  and  _496
REMARK  210  A    between atoms: _496  and  _497
REMARK  211  A    between atoms: _496  and  _499
REMARK  212  A    between atoms: _499  and  _500
REMARK  213  A    between atoms: _503  and  _505
REMARK  214  A    between atoms: _505  and  _506
REMARK  215  A    between atoms: _505  and  _508
REMARK  216  A    between atoms: _508  and  _509
REMARK  217  A    between atoms: _512  and  _514
REMARK  218  A    between atoms: _514  and  _515
REMARK  219  A    between atoms: _514  and  _517
REMARK  220  A    between atoms: _517  and  _518
REMARK  221  A    between atoms: _518  and  _519
REMARK  222  A    between atoms: _524  and  _526
REMARK  223  A    between atoms: _526  and  _527
REMARK  224  A    between atoms: _526  and  _529
REMARK  225  A    between atoms: _532  and  _534
REMARK  226  A    between atoms: _534  and  _535
REMARK  227  A    between atoms: _534  and  _537
REMARK  228  A    between atoms: _537  and  _538
REMARK  229  A    between atoms: _541  and  _543
REMARK  230  A    between atoms: _543  and  _544
REMARK  231  A    between atoms: _543  and  _546
REMARK  232  A    between atoms: _546  and  _547
REMARK  233  A    between atoms: _547  and  _548
REMARK  234  A    between atoms: _550  and  _552
REMARK  235  A    between atoms: _552  and  _553
REMARK  236  A    between atoms: _552  and  _555
REMARK  237  A    between atoms: _555  and  _556
REMARK  238  A    between atoms: _556  and  _557
REMARK  239  A    between atoms: _560  and  _562
REMARK  240  A    between atoms: _562  and  _563
REMARK  241  A    between atoms: _562  and  _565
REMARK  242  A    between atoms: _565  and  _566
REMARK  243  A    between atoms: _569  and  _571
REMARK  244  A    between atoms: _571  and  _572
REMARK  245  A    between atoms: _571  and  _574
REMARK  246  A    between atoms: _574  and  _575
REMARK  247  A    between atoms: _575  and  _576
REMARK  248  A    between atoms: _581  and  _583
REMARK  249  A    between atoms: _583  and  _584
REMARK  250  A    between atoms: _583  and  _586
REMARK  251  A    between atoms: _586  and  _587
REMARK  252  A    between atoms: _590  and  _592
REMARK  253  A    between atoms: _592  and  _593
REMARK  254  A    between atoms: _592  and  _595
REMARK  255  A    between atoms: _595  and  _596
REMARK  256  A    between atoms: _601  and  _603
REMARK  257  A    between atoms: _603  and  _604
REMARK  258  A    between atoms: _607  and  _609
REMARK  259  A    between atoms: _609  and  _610
REMARK  260  A    between atoms: _609  and  _612
REMARK  261  A    between atoms: _612  and  _613
REMARK  262  A    between atoms: _616  and  _618
REMARK  263  A    between atoms: _618  and  _619
REMARK  264  A    between atoms: _618  and  _621
REMARK  265  A    between atoms: _624  and  _626
REMARK  266  A    between atoms: _626  and  _627
REMARK  267  A    between atoms: _626  and  _629
REMARK  268  A    between atoms: _629  and  _630
REMARK  269  A    between atoms: _630  and  _631
REMARK  270  A    between atoms: _631  and  _632
REMARK  271  A    between atoms: _641  and  _643
REMARK  272  A    between atoms: _643  and  _644
REMARK  273  A    between atoms: _643  and  _646
REMARK  274  A    between atoms: _646  and  _647
REMARK  275  A    between atoms: _650  and  _652
REMARK  276  A    between atoms: _652  and  _653
REMARK  277  A    between atoms: _652  and  _655
REMARK  278  A    between atoms: _655  and  _656
REMARK  279  A    between atoms: _659  and  _661
REMARK  280  A    between atoms: _661  and  _662
REMARK  281  A    between atoms: _661  and  _664
REMARK  282  A    between atoms: _664  and  _665
REMARK  283  A    between atoms: _665  and  _666
REMARK  284  A    between atoms: _666  and  _667
REMARK  285  A    between atoms: _676  and  _678
REMARK  286  A    between atoms: _678  and  _679
REMARK  287  A    between atoms: _678  and  _681
REMARK  288  A    between atoms: _681  and  _682
REMARK  289  A    between atoms: _682  and  _683
REMARK  290  A    between atoms: _688  and  _690
REMARK  291  A    between atoms: _690  and  _691
REMARK  292  A    between atoms: _690  and  _693
REMARK  293  A    between atoms: _696  and  _698
REMARK  294  A    between atoms: _698  and  _699
REMARK  295  A    between atoms: _698  and  _701
REMARK  296  A    between atoms: _701  and  _702
REMARK                            x       y       z     vdW  Elec       q    Type
REMARK                         _______ _______ _______ _____ _____    ______ ____
ROOT
ATOM      1  C   ALA A   1       4.683   7.352   1.518  0.00  0.00    +0.238 C 
ATOM      2  O   ALA A   1       3.877   7.296   2.450  0.00  0.00    -0.274 OA
ATOM      3  N   LEU A   2       5.960   7.013   1.645  0.00  0.00    -0.298 N 
ATOM      4  H   LEU A   2       6.592   7.087   0.822  0.00  0.00    +0.150 HD
ENDROOT
BRANCH   1   5
ATOM      5  CA  ALA A   1       4.242   7.815   0.136  0.00  0.00    +0.145 C 
ATOM      6  CB  ALA A   1       3.928   6.601  -0.744  0.00  0.00    +0.028 C 
BRANCH   5   7
ATOM      7  N   ALA A   1       5.265   8.646  -0.493  0.00  0.00    -0.238 NA
ATOM      8  H   ALA A   1       5.815   8.268  -1.291  0.00  0.00    +0.142 HD
ENDBRANCH   5   7
ENDBRANCH   1   5
BRANCH   3   9
ATOM      9  CA  LEU A   2       6.495   6.538   2.917  0.00  0.00    +0.137 C 
BRANCH   9  10
ATOM     10  C   LEU A   2       6.420   7.651   3.963  0.00  0.00    +0.227 C 
ATOM     11  O   LEU A   2       6.071   7.408   5.116  0.00  0.00    -0.286 OA
ENDBRANCH   9  10
BRANCH   9  12
ATOM     12  CB  LEU A   2       7.939   6.067   2.738  0.00  0.00    +0.028 C 
BRANCH  12  13
ATOM     13  CG  LEU A   2       8.568   5.331   3.923  0.00  0.00    +0.002 C 
ATOM     14  CD2 LEU A   2       7.697   4.152   4.326  0.00  0.00    +0.000 C 
ATOM     15  CD1 LEU A   2       9.962   4.859   3.550  0.00  0.00    +0.000 C 
ENDBRANCH  12  13
ENDBRANCH   9  12
ENDBRANCH   3   9
TORSDOF 6
REMARK  Name = ../refined-set-2016/3v2p/3v2p_pocket.pdb
REMARK  296 active torsions:
REMARK  status: ('A' for Active; 'I' for Inactive)
REMARK    1  A    between atoms: _1  and  _3
REMARK    2  A    between atoms: _3  and  _4
REMARK    3  A    between atoms: _3  and  _6
REMARK    4  A    between atoms: _6  and  _7
REMARK    5  A    between atoms: _7  and  _8
REMARK    6  A    between atoms: _10  and  _12
REMARK    7  A    between atoms: _12  and  _13
REMARK    8  A    between atoms: _12  and  _15
REMARK    9  A    between atoms: _15  and  _16
REMARK   10  A    between atoms: _16  and  _17
REMARK   11  A    between atoms: _20  and  _22
REMARK   12  A    between atoms: _22  and  _23
REMARK   13  A    between atoms: _22  and  _25
REMARK   14  A    between atoms: _25  and  _26
REMARK   15  A    between atoms: _29  and  _31
REMARK   16  A    between atoms: _31  and  _32
REMARK   17  A    between atoms: _31  and  _34
REMARK   18  A    between atoms: _34  and  _35
REMARK   19  A    between atoms: _38  and  _40
REMARK   20  A    between atoms: _40  and  _41
REMARK   21  A    between atoms: _40  and  _43
REMARK   22  A    between atoms: _43  and  _44
REMARK   23  A    between atoms: _49  and  _51
REMARK   24  A    between atoms: _51  and  _52
REMARK   25  A    between atoms: _55  and  _57
REMARK   26  A    between atoms: _57  and  _58
REMARK   27  A    between atoms: _57  and  _60
REMARK   28  A    between atoms: _60  and  _61
REMARK   29  A    between atoms: _64  and  _66
REMARK   30  A    between atoms: _66  and  _67
REMARK   31  A    between atoms: _66  and  _69
REMARK   32  A    between atoms: _72  and  _74
REMARK   33  A    between atoms: _74  and  _75
REMARK   34  A    between atoms: _74  and  _77
REMARK   35  A    between atoms: _77  and  _78
REMARK   36  A    between atoms: _78  and  _79
REMARK   37  A    between atoms: _79  and  _80
REMARK   38  A    between atoms: _89  and  _91
REMARK   39  A    between atoms: _91  and  _92
REMARK   40  A    between atoms: _91  and  _94
REMARK   41  A    between atoms: _94  and  _95
REMARK   42  A    between atoms: _98  and  _100
REMARK   43  A    between atoms: _100  and  _101
REMARK   44  A    between atoms: _100  and  _103
REMARK   45  A    between atoms: _103  and  _104
REMARK   46  A    between atoms: _107  and  _109
REMARK   47  A    between atoms: _109  and  _110
REMARK   48  A    between atoms: _109  and  _112
REMARK   49  A    between atoms: _112  and  _113
REMARK   50  A    between atoms: _113  and  _114
REMARK   51  A    between atoms: _119  and  _121
REMARK   52  A    between atoms: _121  and  _122
REMARK   53  A    between atoms: _121  and  _124
REMARK   54  A    between atoms: _127  and  _129
REMARK   55  A    between atoms: _129  and  _130
REMARK   56  A    between atoms: _129  and  _132
REMARK   57  A    between atoms: _132  and  _133
REMARK   58  A    between atoms: _136  and  _138
REMARK   59  A    between atoms: _138  and  _139
REMARK   60  A    between atoms: _138  and  _141
REMARK   61  A    between atoms: _141  and  _142
REMARK   62  A    between atoms: _142  and  _143
REMARK   63  A    between atoms: _145  and  _147
REMARK   64  A    between atoms: _147  and  _148
REMARK   65  A    between atoms: _147  and  _150
REMARK   66  A    between atoms: _150  and  _151
REMARK   67  A    between atoms: _151  and  _152
REMARK   68  A    between atoms: _155  and  _157
REMARK   69  A    between atoms: _157  and  _158
REMARK   70  A    between atoms: _157  and  _160
REMARK   71  A    between atoms: _160  and  _161
REMARK   72  A    between atoms: _164  and  _166
REMARK   73  A    between atoms: _166  and  _167
REMARK   74  A    between atoms: _166  and  _169
REMARK   75  A    between atoms: _169  and  _170
REMARK   76  A    between atoms: _173  and  _175
REMARK   77  A    between atoms: _175  and  _176
REMARK   78  A    between atoms: _175  and  _178
REMARK   79  A    between atoms: _178  and  _179
REMARK   80  A    between atoms: _184  and  _186
REMARK   81  A    between atoms: _186  and  _187
REMARK   82  A    between atoms: _190  and  _192
REMARK   83  A    between atoms: _192  and  _193
REMARK   84  A    between atoms: _192  and  _195
REMARK   85  A    between atoms: _195  and  _196
REMARK   86  A    between atoms: _199  and  _201
REMARK   87  A    between atoms: _201  and  _202
REMARK   88  A    between atoms: _201  and  _204
REMARK   89  A    between atoms: _207  and  _209
REMARK   90  A    between atoms: _209  and  _210
REMARK   91  A    between atoms: _209  and  _212
REMARK   92  A    between atoms: _212  and  _213
REMARK   93  A    between atoms: _213  and  _214
REMARK   94  A    between atoms: _214  and  _215
REMARK   95  A    between atoms: _224  and  _226
REMARK   96  A    between atoms: _226  and  _227
REMARK   97  A    between atoms: _226  and  _229
REMARK   98  A    between atoms: _229  and  _230
REMARK   99  A    between atoms: _233  and  _235
REMARK  100  A    between atoms: _235  and  _236
REMARK  101  A    between atoms: _235  and  _238
REMARK  102  A    between atoms: _238  and  _239
REMARK  103  A    between atoms: _242  and  _244
REMARK  104  A    between atoms: _244  and  _245
REMARK  105  A    between atoms: _244  and  _247
REMARK  106  A    between atoms: _247  and  _248
REMARK  107  A    between atoms: _248  and  _249
REMARK  108  A    between atoms: _254  and  _256
REMARK  109  A    between atoms: _256  and  _257
REMARK  110  A    between atoms: _256  and  _259
REMARK  111  A    between atoms: _262  and  _264
REMARK  112  A    between atoms: _264  and  _265
REMARK  113  A    between atoms: _264  and  _267
REMARK  114  A    between atoms: _267  and  _268
REMARK  115  A    between atoms: _271  and  _273
REMARK  116  A    between atoms: _273  and  _274
REMARK  117  A    between atoms: _273  and  _276
REMARK  118  A    between atoms: _276  and  _277
REMARK  119  A    between atoms: _277  and  _278
REMARK  120  A    between atoms: _280  and  _282
REMARK  121  A    between atoms: _282  and  _283
REMARK  122  A    between atoms: _282  and  _285
REMARK  123  A    between atoms: _285  and  _286
REMARK  124  A    between atoms: _286  and  _287
REMARK  125  A    between atoms: _290  and  _292
REMARK  126  A    between atoms: _292  and  _293
REMARK  127  A    between atoms: _292  and  _295
REMARK  128  A    between atoms: _295  and  _296
REMARK  129  A    between atoms: _299  and  _301
REMARK  130  A    between atoms: _301  and  _302
REMARK  131  A    between atoms: _301  and  _304
REMARK  132  A    between atoms: _304  and  _305
REMARK  133  A    between atoms: _308  and  _310
REMARK  134  A    between atoms: _310  and  _311
REMARK  135  A    between atoms: _310  and  _313
REMARK  136  A    between atoms: _313  and  _314
REMARK  137  A    between atoms: _319  and  _321
REMARK  138  A    between atoms: _321  and  _322
REMARK  139  A    between atoms: _325  and  _327
REMARK  140  A    between atoms: _327  and  _328
REMARK  141  A    between atoms: _327  and  _330
REMARK  142  A    between atoms: _330  and  _331
REMARK  143  A    between atoms: _334  and  _336
REMARK  144  A    between atoms: _336  and  _337
REMARK  145  A    between atoms: _336  and  _339
REMARK  146  A    between atoms: _342  and  _344
REMARK  147  A    between atoms: _344  and  _345
REMARK  148  A    between atoms: _344  and  _347
REMARK  149  A    between atoms: _347  and  _348
REMARK  150  A    between atoms: _348  and  _349
REMARK  151  A    between atoms: _349  and  _350
REMARK  152  A    between atoms: _359  and  _361
REMARK  153  A    between atoms: _361  and  _362
REMARK  154  A    between atoms: _361  and  _364
REMARK  155  A    between atoms: _364  and  _365
REMARK  156  A    between atoms: _368  and  _370
REMARK  157  A    between atoms: _370  and  _371
REMARK  158  A    between atoms: _370  and  _373
REMARK  159  A    between atoms: _373  and  _374
REMARK  160  A    between atoms: _377  and  _379
REMARK  161  A    between atoms: _379  and  _380
REMARK  162  A    between atoms: _379  and  _382
REMARK  163  A    between atoms: _382  and  _383
REMARK  164  A    between atoms: _383  and  _384
REMARK  165  A    between atoms: _389  and  _391
REMARK  166  A    between atoms: _391  and  _392
REMARK  167  A    between atoms: _391  and  _394
REMARK  168  A    between atoms: _397  and  _399
REMARK  169  A    between atoms: _399  and  _400
REMARK  170  A    between atoms: _399  and  _402
REMARK  171  A    between atoms: _402  and  _403
REMARK  172  A    between atoms: _406  and  _408
REMARK  173  A    between atoms: _408  and  _409
REMARK  174  A    between atoms: _408  and  _411
REMARK  175  A    between atoms: _411  and  _412
REMARK  176  A    between atoms: _412  and  _413
REMARK  177  A    between atoms: _415  and  _417
REMARK  178  A    between atoms: _417  and  _418
REMARK  179  A    between atoms: _417  and  _420
REMARK  180  A    between atoms: _420  and  _421
REMARK  181  A    between atoms: _421  and  _422
REMARK  182  A    between atoms: _425  and  _427
REMARK  183  A    between atoms: _427  and  _428
REMARK  184  A    between atoms: _427  and  _430
REMARK  185  A    between atoms: _430  and  _431
REMARK  186  A    between atoms: _434  and  _436
REMARK  187  A    between atoms: _436  and  _437
REMARK  188  A    between atoms: _436  and  _439
REMARK  189  A    between atoms: _439  and  _440
REMARK  190  A    between atoms: _443  and  _445
REMARK  191  A    between atoms: _445  and  _446
REMARK  192  A    between atoms: _445  and  _448
REMARK  193  A    between atoms: _448  and  _449
REMARK  194  A    between atoms: _454  and  _456
REMARK  195  A    between atoms: _456  and  _457
REMARK  196  A    between atoms: _460  and  _462
REMARK  197  A    between atoms: _462  and  _463
REMARK  198  A    between atoms: _462  and  _465
REMARK  199  A    between atoms: _465  and  _466
REMARK  200  A    between atoms: _469  and  _471
REMARK  201  A    between atoms: _471  and  _472
REMARK  202  A    between atoms: _471  and  _474
REMARK  203  A    between atoms: _477  and  _479
REMARK  204  A    between atoms: _479  and  _480
REMARK  205  A    between atoms: _479  and  _482
REMARK  206  A    between atoms: _482  and  _483
REMARK  207  A    between atoms: _483  and  _484
REMARK  208  A    between atoms: _484  and  _485
REMARK  209  A    between atoms: _494  and  _496
REMARK  210  A    between atoms: _496  and  _497
REMARK  211  A    between atoms: _496  and  _499
REMARK  212  A    between atoms: _499  and  _500
REMARK  213  A    between atoms: _503  and  _505
REMARK  214  A    between atoms: _505  and  _506
REMARK  215  A    between atoms: _505  and  _508
REMARK  216  A    between atoms: _508  and  _509
REMARK  217  A    between atoms: _512  and  _514
REMARK  218  A    between atoms: _514  and  _515
REMARK  219  A    between atoms: _514  and  _517
REMARK  220  A    between atoms: _517  and  _518
REMARK  221  A    between atoms: _518  and  _519
REMARK  222  A    between atoms: _524  and  _526
REMARK  223  A    between atoms: _526  and  _527
REMARK  224  A    between atoms: _526  and  _529
REMARK  225  A    between atoms: _532  and  _534
REMARK  226  A    between atoms: _534  and  _535
REMARK  227  A    between atoms: _534  and  _537
REMARK  228  A    between atoms: _537  and  _538
REMARK  229  A    between atoms: _541  and  _543
REMARK  230  A    between atoms: _543  and  _544
REMARK  231  A    between atoms: _543  and  _546
REMARK  232  A    between atoms: _546  and  _547
REMARK  233  A    between atoms: _547  and  _548
REMARK  234  A    between atoms: _550  and  _552
REMARK  235  A    between atoms: _552  and  _553
REMARK  236  A    between atoms: _552  and  _555
REMARK  237  A    between atoms: _555  and  _556
REMARK  238  A    between atoms: _556  and  _557
REMARK  239  A    between atoms: _560  and  _562
REMARK  240  A    between atoms: _562  and  _563
REMARK  241  A    between atoms: _562  and  _565
REMARK  242  A    between atoms: _565  and  _566
REMARK  243  A    between atoms: _569  and  _571
REMARK  244  A    between atoms: _571  and  _572
REMARK  245  A    between atoms: _571  and  _574
REMARK  246  A    between atoms: _574  and  _575
REMARK  247  A    between atoms: _575  and  _576
REMARK  248  A    between atoms: _581  and  _583
REMARK  249  A    between atoms: _583  and  _584
REMARK  250  A    between atoms: _583  and  _586
REMARK  251  A    between atoms: _586  and  _587
REMARK  252  A    between atoms: _590  and  _592
REMARK  253  A    between atoms: _592  and  _593
REMARK  254  A    between atoms: _592  and  _595
REMARK  255  A    between atoms: _595  and  _596
REMARK  256  A    between atoms: _601  and  _603
REMARK  257  A    between atoms: _603  and  _604
REMARK  258  A    between atoms: _607  and  _609
REMARK  259  A    between atoms: _609  and  _610
REMARK  260  A    between atoms: _609  and  _612
REMARK  261  A    between atoms: _612  and  _613
REMARK  262  A    between atoms: _616  and  _618
REMARK  263  A    between atoms: _618  and  _619
REMARK  264  A    between atoms: _618  and  _621
REMARK  265  A    between atoms: _624  and  _626
REMARK  266  A    between atoms: _626  and  _627
REMARK  267  A    between atoms: _626  and  _629
REMARK  268  A    between atoms: _629  and  _630
REMARK  269  A    between atoms: _630  and  _631
REMARK  270  A    between atoms: _631  and  _632
REMARK  271  A    between atoms: _641  and  _643
REMARK  272  A    between atoms: _643  and  _644
REMARK  273  A    between atoms: _643  and  _646
REMARK  274  A    between atoms: _646  and  _647
REMARK  275  A    between atoms: _650  and  _652
REMARK  276  A    between atoms: _652  and  _653
REMARK  277  A    between atoms: _652  and  _655
REMARK  278  A    between atoms: _655  and  _656
REMARK  279  A    between atoms: _659  and  _661
REMARK  280  A    between atoms: _661  and  _662
REMARK  281  A    between atoms: _661  and  _664
REMARK  282  A    between atoms: _664  and  _665
REMARK  283  A    between atoms: _665  and  _666
REMARK  284  A    between atoms: _666  and  _667
REMARK  285  A    between atoms: _676  and  _678
REMARK  286  A    between atoms: _678  and  _679
REMARK  287  A    between atoms: _678  and  _681
REMARK  288  A    between atoms: _681  and  _682
REMARK  289  A    between atoms: _682  and  _683
REMARK  290  A    between atoms: _688  and  _690
REMARK  291  A    between atoms: _690  and  _691
REMARK  292  A    between atoms: _690  and  _693
REMARK  293  A    between atoms: _696  and  _698
REMARK  294  A    between atoms: _698  and  _699
REMARK  295  A    between atoms: _698  and  _701
REMARK  296  A    between atoms: _701  and  _702
REMARK                            x       y       z     vdW  Elec       q    Type
REMARK                         _______ _______ _______ _____ _____    ______ ____
ROOT
ATOM      1  CA  ARG A   2       5.170   7.761   8.693  0.00  0.00    +0.137 C 
ENDROOT
BRANCH   1   4
ATOM      2  C   VAL A   1       3.362   6.848   7.372  0.00  0.00    +0.238 C 
ATOM      3  O   VAL A   1       2.747   6.535   8.389  0.00  0.00    -0.274 OA
ATOM      4  N   ARG A   2       4.545   7.447   7.415  0.00  0.00    -0.298 N 
ATOM      5  H   ARG A   2       5.030   7.694   6.529  0.00  0.00    +0.150 HD
BRANCH   2   6
ATOM      6  CA  VAL A   1       2.785   6.563   5.980  0.00  0.00    +0.145 C 
BRANCH   6   7
ATOM      7  CB  VAL A   1       3.453   5.293   5.407  0.00  0.00    +0.025 C 
ATOM      8  CG2 VAL A   1       3.491   4.196   6.465  0.00  0.00    +0.002 C 
ATOM      9  CG1 VAL A   1       2.679   4.811   4.184  0.00  0.00    +0.002 C 
ENDBRANCH   6   7
BRANCH   6  10
ATOM     10  N   VAL A   1       3.010   7.718   5.115  0.00  0.00    -0.238 NA
ATOM     11  H   VAL A   1       3.538   7.602   4.227  0.00  0.00    +0.142 HD
ENDBRANCH   6  10
ENDBRANCH   2   6
ENDBRANCH   1   4
BRANCH   1  12
ATOM     12  C   ARG A   2       4.282   8.668   9.540  0.00  0.00    +0.227 C 
ATOM     13  O   ARG A   2       4.079   8.418  10.729  0.00  0.00    -0.286 OA
ENDBRANCH   1  12
BRANCH   1  14
ATOM     14  CB  ARG A   2       6.515   8.452   8.481  0.00  0.00    +0.031 C 
BRANCH  14  15
ATOM     15  CG  ARG A   2       7.125   8.987   9.774  0.00  0.00    +0.045 C 
BRANCH  15  16
ATOM     16  CD  ARG A   2       7.981  10.205   9.494  0.00  0.00    +0.174 C 
BRANCH  16  17
ATOM     17  NE  ARG A   2       9.275   9.847   8.938  0.00  0.00    -0.265 N 
ATOM     18  HE  ARG A   2       9.662   8.910   9.170  0.00  0.00    +0.259 HD
ATOM     19  CZ  ARG A   2       9.995  10.639   8.153  0.00  0.00    +0.342 C 
ATOM     20  NH2 ARG A   2       9.542  11.841   7.823  0.00  0.00    -0.292 N 
ATOM     21 HH21 ARG A   2       8.620  12.165   8.179  0.00  0.00    +0.255 HD
ATOM     22 HH22 ARG A   2      10.108  12.459   7.208  0.00  0.00    +0.255 HD
ATOM     23  NH1 ARG A   2      11.172  10.230   7.709  0.00  0.00    -0.292 N 
ATOM     24 HH11 ARG A   2      11.530   9.291   7.975  0.00  0.00    +0.255 HD
ATOM     25 HH12 ARG A   2      11.739  10.848   7.094  0.00  0.00    +0.255 HD
ENDBRANCH  16  17
ENDBRANCH  15  16
ENDBRANCH  14  15
ENDBRANCH   1  14
TORSDOF 9
REMARK  Name = ../refined-set-2016/3v2p/3v2p_pocket.pdb
REMARK  296 active torsions:
REMARK  status: ('A' for Active; 'I' for Inactive)
REMARK    1  A    between atoms: _1  and  _3
REMARK    2  A    between atoms: _3  and  _4
REMARK    3  A    between atoms: _3  and  _6
REMARK    4  A    between atoms: _6  and  _7
REMARK    5  A    between atoms: _7  and  _8
REMARK    6  A    between atoms: _10  and  _12
REMARK    7  A    between atoms: _12  and  _13
REMARK    8  A    between atoms: _12  and  _15
REMARK    9  A    between atoms: _15  and  _16
REMARK   10  A    between atoms: _16  and  _17
REMARK   11  A    between atoms: _20  and  _22
REMARK   12  A    between atoms: _22  and  _23
REMARK   13  A    between atoms: _22  and  _25
REMARK   14  A    between atoms: _25  and  _26
REMARK   15  A    between atoms: _29  and  _31
REMARK   16  A    between atoms: _31  and  _32
REMARK   17  A    between atoms: _31  and  _34
REMARK   18  A    between atoms: _34  and  _35
REMARK   19  A    between atoms: _38  and  _40
REMARK   20  A    between atoms: _40  and  _41
REMARK   21  A    between atoms: _40  and  _43
REMARK   22  A    between atoms: _43  and  _44
REMARK   23  A    between atoms: _49  and  _51
REMARK   24  A    between atoms: _51  and  _52
REMARK   25  A    between atoms: _55  and  _57
REMARK   26  A    between atoms: _57  and  _58
REMARK   27  A    between atoms: _57  and  _60
REMARK   28  A    between atoms: _60  and  _61
REMARK   29  A    between atoms: _64  and  _66
REMARK   30  A    between atoms: _66  and  _67
REMARK   31  A    between atoms: _66  and  _69
REMARK   32  A    between atoms: _72  and  _74
REMARK   33  A    between atoms: _74  and  _75
REMARK   34  A    between atoms: _74  and  _77
REMARK   35  A    between atoms: _77  and  _78
REMARK   36  A    between atoms: _78  and  _79
REMARK   37  A    between atoms: _79  and  _80
REMARK   38  A    between atoms: _89  and  _91
REMARK   39  A    between atoms: _91  and  _92
REMARK   40  A    between atoms: _91  and  _94
REMARK   41  A    between atoms: _94  and  _95
REMARK   42  A    between atoms: _98  and  _100
REMARK   43  A    between atoms: _100  and  _101
REMARK   44  A    between atoms: _100  and  _103
REMARK   45  A    between atoms: _103  and  _104
REMARK   46  A    between atoms: _107  and  _109
REMARK   47  A    between atoms: _109  and  _110
REMARK   48  A    between atoms: _109  and  _112
REMARK   49  A    between atoms: _112  and  _113
REMARK   50  A    between atoms: _113  and  _114
REMARK   51  A    between atoms: _119  and  _121
REMARK   52  A    between atoms: _121  and  _122
REMARK   53  A    between atoms: _121  and  _124
REMARK   54  A    between atoms: _127  and  _129
REMARK   55  A    between atoms: _129  and  _130
REMARK   56  A    between atoms: _129  and  _132
REMARK   57  A    between atoms: _132  and  _133
REMARK   58  A    between atoms: _136  and  _138
REMARK   59  A    between atoms: _138  and  _139
REMARK   60  A    between atoms: _138  and  _141
REMARK   61  A    between atoms: _141  and  _142
REMARK   62  A    between atoms: _142  and  _143
REMARK   63  A    between atoms: _145  and  _147
REMARK   64  A    between atoms: _147  and  _148
REMARK   65  A    between atoms: _147  and  _150
REMARK   66  A    between atoms: _150  and  _151
REMARK   67  A    between atoms: _151  and  _152
REMARK   68  A    between atoms: _155  and  _157
REMARK   69  A    between atoms: _157  and  _158
REMARK   70  A    between atoms: _157  and  _160
REMARK   71  A    between atoms: _160  and  _161
REMARK   72  A    between atoms: _164  and  _166
REMARK   73  A    between atoms: _166  and  _167
REMARK   74  A    between atoms: _166  and  _169
REMARK   75  A    between atoms: _169  and  _170
REMARK   76  A    between atoms: _173  and  _175
REMARK   77  A    between atoms: _175  and  _176
REMARK   78  A    between atoms: _175  and  _178
REMARK   79  A    between atoms: _178  and  _179
REMARK   80  A    between atoms: _184  and  _186
REMARK   81  A    between atoms: _186  and  _187
REMARK   82  A    between atoms: _190  and  _192
REMARK   83  A    between atoms: _192  and  _193
REMARK   84  A    between atoms: _192  and  _195
REMARK   85  A    between atoms: _195  and  _196
REMARK   86  A    between atoms: _199  and  _201
REMARK   87  A    between atoms: _201  and  _202
REMARK   88  A    between atoms: _201  and  _204
REMARK   89  A    between atoms: _207  and  _209
REMARK   90  A    between atoms: _209  and  _210
REMARK   91  A    between atoms: _209  and  _212
REMARK   92  A    between atoms: _212  and  _213
REMARK   93  A    between atoms: _213  and  _214
REMARK   94  A    between atoms: _214  and  _215
REMARK   95  A    between atoms: _224  and  _226
REMARK   96  A    between atoms: _226  and  _227
REMARK   97  A    between atoms: _226  and  _229
REMARK   98  A    between atoms: _229  and  _230
REMARK   99  A    between atoms: _233  and  _235
REMARK  100  A    between atoms: _235  and  _236
REMARK  101  A    between atoms: _235  and  _238
REMARK  102  A    between atoms: _238  and  _239
REMARK  103  A    between atoms: _242  and  _244
REMARK  104  A    between atoms: _244  and  _245
REMARK  105  A    between atoms: _244  and  _247
REMARK  106  A    between atoms: _247  and  _248
REMARK  107  A    between atoms: _248  and  _249
REMARK  108  A    between atoms: _254  and  _256
REMARK  109  A    between atoms: _256  and  _257
REMARK  110  A    between atoms: _256  and  _259
REMARK  111  A    between atoms: _262  and  _264
REMARK  112  A    between atoms: _264  and  _265
REMARK  113  A    between atoms: _264  and  _267
REMARK  114  A    between atoms: _267  and  _268
REMARK  115  A    between atoms: _271  and  _273
REMARK  116  A    between atoms: _273  and  _274
REMARK  117  A    between atoms: _273  and  _276
REMARK  118  A    between atoms: _276  and  _277
REMARK  119  A    between atoms: _277  and  _278
REMARK  120  A    between atoms: _280  and  _282
REMARK  121  A    between atoms: _282  and  _283
REMARK  122  A    between atoms: _282  and  _285
REMARK  123  A    between atoms: _285  and  _286
REMARK  124  A    between atoms: _286  and  _287
REMARK  125  A    between atoms: _290  and  _292
REMARK  126  A    between atoms: _292  and  _293
REMARK  127  A    between atoms: _292  and  _295
REMARK  128  A    between atoms: _295  and  _296
REMARK  129  A    between atoms: _299  and  _301
REMARK  130  A    between atoms: _301  and  _302
REMARK  131  A    between atoms: _301  and  _304
REMARK  132  A    between atoms: _304  and  _305
REMARK  133  A    between atoms: _308  and  _310
REMARK  134  A    between atoms: _310  and  _311
REMARK  135  A    between atoms: _310  and  _313
REMARK  136  A    between atoms: _313  and  _314
REMARK  137  A    between atoms: _319  and  _321
REMARK  138  A    between atoms: _321  and  _322
REMARK  139  A    between atoms: _325  and  _327
REMARK  140  A    between atoms: _327  and  _328
REMARK  141  A    between atoms: _327  and  _330
REMARK  142  A    between atoms: _330  and  _331
REMARK  143  A    between atoms: _334  and  _336
REMARK  144  A    between atoms: _336  and  _337
REMARK  145  A    between atoms: _336  and  _339
REMARK  146  A    between atoms: _342  and  _344
REMARK  147  A    between atoms: _344  and  _345
REMARK  148  A    between atoms: _344  and  _347
REMARK  149  A    between atoms: _347  and  _348
REMARK  150  A    between atoms: _348  and  _349
REMARK  151  A    between atoms: _349  and  _350
REMARK  152  A    between atoms: _359  and  _361
REMARK  153  A    between atoms: _361  and  _362
REMARK  154  A    between atoms: _361  and  _364
REMARK  155  A    between atoms: _364  and  _365
REMARK  156  A    between atoms: _368  and  _370
REMARK  157  A    between atoms: _370  and  _371
REMARK  158  A    between atoms: _370  and  _373
REMARK  159  A    between atoms: _373  and  _374
REMARK  160  A    between atoms: _377  and  _379
REMARK  161  A    between atoms: _379  and  _380
REMARK  162  A    between atoms: _379  and  _382
REMARK  163  A    between atoms: _382  and  _383
REMARK  164  A    between atoms: _383  and  _384
REMARK  165  A    between atoms: _389  and  _391
REMARK  166  A    between atoms: _391  and  _392
REMARK  167  A    between atoms: _391  and  _394
REMARK  168  A    between atoms: _397  and  _399
REMARK  169  A    between atoms: _399  and  _400
REMARK  170  A    between atoms: _399  and  _402
REMARK  171  A    between atoms: _402  and  _403
REMARK  172  A    between atoms: _406  and  _408
REMARK  173  A    between atoms: _408  and  _409
REMARK  174  A    between atoms: _408  and  _411
REMARK  175  A    between atoms: _411  and  _412
REMARK  176  A    between atoms: _412  and  _413
REMARK  177  A    between atoms: _415  and  _417
REMARK  178  A    between atoms: _417  and  _418
REMARK  179  A    between atoms: _417  and  _420
REMARK  180  A    between atoms: _420  and  _421
REMARK  181  A    between atoms: _421  and  _422
REMARK  182  A    between atoms: _425  and  _427
REMARK  183  A    between atoms: _427  and  _428
REMARK  184  A    between atoms: _427  and  _430
REMARK  185  A    between atoms: _430  and  _431
REMARK  186  A    between atoms: _434  and  _436
REMARK  187  A    between atoms: _436  and  _437
REMARK  188  A    between atoms: _436  and  _439
REMARK  189  A    between atoms: _439  and  _440
REMARK  190  A    between atoms: _443  and  _445
REMARK  191  A    between atoms: _445  and  _446
REMARK  192  A    between atoms: _445  and  _448
REMARK  193  A    between atoms: _448  and  _449
REMARK  194  A    between atoms: _454  and  _456
REMARK  195  A    between atoms: _456  and  _457
REMARK  196  A    between atoms: _460  and  _462
REMARK  197  A    between atoms: _462  and  _463
REMARK  198  A    between atoms: _462  and  _465
REMARK  199  A    between atoms: _465  and  _466
REMARK  200  A    between atoms: _469  and  _471
REMARK  201  A    between atoms: _471  and  _472
REMARK  202  A    between atoms: _471  and  _474
REMARK  203  A    between atoms: _477  and  _479
REMARK  204  A    between atoms: _479  and  _480
REMARK  205  A    between atoms: _479  and  _482
REMARK  206  A    between atoms: _482  and  _483
REMARK  207  A    between atoms: _483  and  _484
REMARK  208  A    between atoms: _484  and  _485
REMARK  209  A    between atoms: _494  and  _496
REMARK  210  A    between atoms: _496  and  _497
REMARK  211  A    between atoms: _496  and  _499
REMARK  212  A    between atoms: _499  and  _500
REMARK  213  A    between atoms: _503  and  _505
REMARK  214  A    between atoms: _505  and  _506
REMARK  215  A    between atoms: _505  and  _508
REMARK  216  A    between atoms: _508  and  _509
REMARK  217  A    between atoms: _512  and  _514
REMARK  218  A    between atoms: _514  and  _515
REMARK  219  A    between atoms: _514  and  _517
REMARK  220  A    between atoms: _517  and  _518
REMARK  221  A    between atoms: _518  and  _519
REMARK  222  A    between atoms: _524  and  _526
REMARK  223  A    between atoms: _526  and  _527
REMARK  224  A    between atoms: _526  and  _529
REMARK  225  A    between atoms: _532  and  _534
REMARK  226  A    between atoms: _534  and  _535
REMARK  227  A    between atoms: _534  and  _537
REMARK  228  A    between atoms: _537  and  _538
REMARK  229  A    between atoms: _541  and  _543
REMARK  230  A    between atoms: _543  and  _544
REMARK  231  A    between atoms: _543  and  _546
REMARK  232  A    between atoms: _546  and  _547
REMARK  233  A    between atoms: _547  and  _548
REMARK  234  A    between atoms: _550  and  _552
REMARK  235  A    between atoms: _552  and  _553
REMARK  236  A    between atoms: _552  and  _555
REMARK  237  A    between atoms: _555  and  _556
REMARK  238  A    between atoms: _556  and  _557
REMARK  239  A    between atoms: _560  and  _562
REMARK  240  A    between atoms: _562  and  _563
REMARK  241  A    between atoms: _562  and  _565
REMARK  242  A    between atoms: _565  and  _566
REMARK  243  A    between atoms: _569  and  _571
REMARK  244  A    between atoms: _571  and  _572
REMARK  245  A    between atoms: _571  and  _574
REMARK  246  A    between atoms: _574  and  _575
REMARK  247  A    between atoms: _575  and  _576
REMARK  248  A    between atoms: _581  and  _583
REMARK  249  A    between atoms: _583  and  _584
REMARK  250  A    between atoms: _583  and  _586
REMARK  251  A    between atoms: _586  and  _587
REMARK  252  A    between atoms: _590  and  _592
REMARK  253  A    between atoms: _592  and  _593
REMARK  254  A    between atoms: _592  and  _595
REMARK  255  A    between atoms: _595  and  _596
REMARK  256  A    between atoms: _601  and  _603
REMARK  257  A    between atoms: _603  and  _604
REMARK  258  A    between atoms: _607  and  _609
REMARK  259  A    between atoms: _609  and  _610
REMARK  260  A    between atoms: _609  and  _612
REMARK  261  A    between atoms: _612  and  _613
REMARK  262  A    between atoms: _616  and  _618
REMARK  263  A    between atoms: _618  and  _619
REMARK  264  A    between atoms: _618  and  _621
REMARK  265  A    between atoms: _624  and  _626
REMARK  266  A    between atoms: _626  and  _627
REMARK  267  A    between atoms: _626  and  _629
REMARK  268  A    between atoms: _629  and  _630
REMARK  269  A    between atoms: _630  and  _631
REMARK  270  A    between atoms: _631  and  _632
REMARK  271  A    between atoms: _641  and  _643
REMARK  272  A    between atoms: _643  and  _644
REMARK  273  A    between atoms: _643  and  _646
REMARK  274  A    between atoms: _646  and  _647
REMARK  275  A    between atoms: _650  and  _652
REMARK  276  A    between atoms: _652  and  _653
REMARK  277  A    between atoms: _652  and  _655
REMARK  278  A    between atoms: _655  and  _656
REMARK  279  A    between atoms: _659  and  _661
REMARK  280  A    between atoms: _661  and  _662
REMARK  281  A    between atoms: _661  and  _664
REMARK  282  A    between atoms: _664  and  _665
REMARK  283  A    between atoms: _665  and  _666
REMARK  284  A    between atoms: _666  and  _667
REMARK  285  A    between atoms: _676  and  _678
REMARK  286  A    between atoms: _678  and  _679
REMARK  287  A    between atoms: _678  and  _681
REMARK  288  A    between atoms: _681  and  _682
REMARK  289  A    between atoms: _682  and  _683
REMARK  290  A    between atoms: _688  and  _690
REMARK  291  A    between atoms: _690  and  _691
REMARK  292  A    between atoms: _690  and  _693
REMARK  293  A    between atoms: _696  and  _698
REMARK  294  A    between atoms: _698  and  _699
REMARK  295  A    between atoms: _698  and  _701
REMARK  296  A    between atoms: _701  and  _702
REMARK                            x       y       z     vdW  Elec       q    Type
REMARK                         _______ _______ _______ _____ _____    ______ ____
ROOT
ATOM      1  C   LEU A   2       1.653   6.823  13.218  0.00  0.00    +0.241 C 
ATOM      2  O   LEU A   2       1.239   6.417  14.306  0.00  0.00    -0.273 OA
ATOM      3  N   ARG A   3       2.284   7.981  13.054  0.00  0.00    -0.298 N 
ATOM      4  H   ARG A   3       2.605   8.242  12.100  0.00  0.00    +0.150 HD
ENDROOT
BRANCH   1   5
ATOM      5  CA  LEU A   2       1.466   5.998  11.956  0.00  0.00    +0.149 C 
BRANCH   5   8
ATOM      6  C   LEU A   1       0.034   7.616  10.818  0.00  0.00    +0.238 C 
ATOM      7  O   LEU A   1      -0.773   7.646  11.748  0.00  0.00    -0.274 OA
ATOM      8  N   LEU A   2       1.134   6.868  10.829  0.00  0.00    -0.297 N 
ATOM      9  H   LEU A   2       1.777   6.903  10.012  0.00  0.00    +0.150 HD
BRANCH   6  10
ATOM     10  CA  LEU A   1      -0.185   8.469   9.569  0.00  0.00    +0.145 C 
BRANCH  10  11
ATOM     11  N   LEU A   1       1.067   9.138   9.233  0.00  0.00    -0.238 NA
ATOM     12  H   LEU A   1       1.553   8.911   8.342  0.00  0.00    +0.142 HD
ENDBRANCH  10  11
BRANCH  10  13
ATOM     13  CB  LEU A   1      -0.648   7.576   8.416  0.00  0.00    +0.026 C 
BRANCH  13  14
ATOM     14  CG  LEU A   1      -1.178   8.296   7.172  0.00  0.00    +0.002 C 
ATOM     15  CD2 LEU A   1      -2.562   8.856   7.458  0.00  0.00    +0.000 C 
ATOM     16  CD1 LEU A   1      -1.218   7.342   5.996  0.00  0.00    +0.000 C 
ENDBRANCH  13  14
ENDBRANCH  10  13
ENDBRANCH   6  10
ENDBRANCH   5   8
BRANCH   5  17
ATOM     17  CB  LEU A   2       2.752   5.225  11.664  0.00  0.00    +0.029 C 
BRANCH  17  18
ATOM     18  CG  LEU A   2       2.692   3.698  11.717  0.00  0.00    +0.002 C 
ATOM     19  CD2 LEU A   2       2.379   3.238  13.132  0.00  0.00    +0.000 C 
ATOM     20  CD1 LEU A   2       4.030   3.126  11.242  0.00  0.00    +0.000 C 
ENDBRANCH  17  18
ENDBRANCH   5  17
ENDBRANCH   1   5
BRANCH   3  21
ATOM     21  CA  ARG A   3       2.546   8.902  14.156  0.00  0.00    +0.137 C 
BRANCH  21  22
ATOM     22  C   ARG A   3       1.223   9.259  14.816  0.00  0.00    +0.227 C 
ATOM     23  O   ARG A   3       1.057   9.125  16.028  0.00  0.00    -0.286 OA
ENDBRANCH  21  22
BRANCH  21  24
ATOM     24  CB  ARG A   3       3.211  10.171  13.621  0.00  0.00    +0.031 C 
BRANCH  24  25
ATOM     25  CG  ARG A   3       3.619  11.166  14.682  0.00  0.00    +0.045 C 
BRANCH  25  26
ATOM     26  CD  ARG A   3       5.109  11.106  14.885  0.00  0.00    +0.174 C 
BRANCH  26  27
ATOM     27  NE  ARG A   3       5.815  11.319  13.624  0.00  0.00    -0.265 N 
ATOM     28  CZ  ARG A   3       7.087  10.995  13.425  0.00  0.00    +0.342 C 
ATOM     29  NH2 ARG A   3       7.793  10.442  14.406  0.00  0.00    -0.292 N 
ATOM     30 HH21 ARG A   3       7.349  10.263  15.329  0.00  0.00    +0.255 HD
ATOM     31 HH22 ARG A   3       8.789  10.188  14.250  0.00  0.00    +0.255 HD
ATOM     32  NH1 ARG A   3       7.655  11.225  12.249  0.00  0.00    -0.292 N 
ATOM     33 HH11 ARG A   3       8.652  10.971  12.094  0.00  0.00    +0.255 HD
ATOM     34 HH12 ARG A   3       7.104  11.660  11.481  0.00  0.00    +0.255 HD
ATOM     35  HE  ARG A   3       5.290  11.750  12.836  0.00  0.00    +0.259 HD
ENDBRANCH  26  27
ENDBRANCH  25  26
ENDBRANCH  24  25
ENDBRANCH  21  24
ENDBRANCH   3  21
TORSDOF 14
REMARK  Name = ../refined-set-2016/3v2p/3v2p_pocket.pdb
REMARK  296 active torsions:
REMARK  status: ('A' for Active; 'I' for Inactive)
REMARK    1  A    between atoms: _1  and  _3
REMARK    2  A    between atoms: _3  and  _4
REMARK    3  A    between atoms: _3  and  _6
REMARK    4  A    between atoms: _6  and  _7
REMARK    5  A    between atoms: _7  and  _8
REMARK    6  A    between atoms: _10  and  _12
REMARK    7  A    between atoms: _12  and  _13
REMARK    8  A    between atoms: _12  and  _15
REMARK    9  A    between atoms: _15  and  _16
REMARK   10  A    between atoms: _16  and  _17
REMARK   11  A    between atoms: _20  and  _22
REMARK   12  A    between atoms: _22  and  _23
REMARK   13  A    between atoms: _22  and  _25
REMARK   14  A    between atoms: _25  and  _26
REMARK   15  A    between atoms: _29  and  _31
REMARK   16  A    between atoms: _31  and  _32
REMARK   17  A    between atoms: _31  and  _34
REMARK   18  A    between atoms: _34  and  _35
REMARK   19  A    between atoms: _38  and  _40
REMARK   20  A    between atoms: _40  and  _41
REMARK   21  A    between atoms: _40  and  _43
REMARK   22  A    between atoms: _43  and  _44
REMARK   23  A    between atoms: _49  and  _51
REMARK   24  A    between atoms: _51  and  _52
REMARK   25  A    between atoms: _55  and  _57
REMARK   26  A    between atoms: _57  and  _58
REMARK   27  A    between atoms: _57  and  _60
REMARK   28  A    between atoms: _60  and  _61
REMARK   29  A    between atoms: _64  and  _66
REMARK   30  A    between atoms: _66  and  _67
REMARK   31  A    between atoms: _66  and  _69
REMARK   32  A    between atoms: _72  and  _74
REMARK   33  A    between atoms: _74  and  _75
REMARK   34  A    between atoms: _74  and  _77
REMARK   35  A    between atoms: _77  and  _78
REMARK   36  A    between atoms: _78  and  _79
REMARK   37  A    between atoms: _79  and  _80
REMARK   38  A    between atoms: _89  and  _91
REMARK   39  A    between atoms: _91  and  _92
REMARK   40  A    between atoms: _91  and  _94
REMARK   41  A    between atoms: _94  and  _95
REMARK   42  A    between atoms: _98  and  _100
REMARK   43  A    between atoms: _100  and  _101
REMARK   44  A    between atoms: _100  and  _103
REMARK   45  A    between atoms: _103  and  _104
REMARK   46  A    between atoms: _107  and  _109
REMARK   47  A    between atoms: _109  and  _110
REMARK   48  A    between atoms: _109  and  _112
REMARK   49  A    between atoms: _112  and  _113
REMARK   50  A    between atoms: _113  and  _114
REMARK   51  A    between atoms: _119  and  _121
REMARK   52  A    between atoms: _121  and  _122
REMARK   53  A    between atoms: _121  and  _124
REMARK   54  A    between atoms: _127  and  _129
REMARK   55  A    between atoms: _129  and  _130
REMARK   56  A    between atoms: _129  and  _132
REMARK   57  A    between atoms: _132  and  _133
REMARK   58  A    between atoms: _136  and  _138
REMARK   59  A    between atoms: _138  and  _139
REMARK   60  A    between atoms: _138  and  _141
REMARK   61  A    between atoms: _141  and  _142
REMARK   62  A    between atoms: _142  and  _143
REMARK   63  A    between atoms: _145  and  _147
REMARK   64  A    between atoms: _147  and  _148
REMARK   65  A    between atoms: _147  and  _150
REMARK   66  A    between atoms: _150  and  _151
REMARK   67  A    between atoms: _151  and  _152
REMARK   68  A    between atoms: _155  and  _157
REMARK   69  A    between atoms: _157  and  _158
REMARK   70  A    between atoms: _157  and  _160
REMARK   71  A    between atoms: _160  and  _161
REMARK   72  A    between atoms: _164  and  _166
REMARK   73  A    between atoms: _166  and  _167
REMARK   74  A    between atoms: _166  and  _169
REMARK   75  A    between atoms: _169  and  _170
REMARK   76  A    between atoms: _173  and  _175
REMARK   77  A    between atoms: _175  and  _176
REMARK   78  A    between atoms: _175  and  _178
REMARK   79  A    between atoms: _178  and  _179
REMARK   80  A    between atoms: _184  and  _186
REMARK   81  A    between atoms: _186  and  _187
REMARK   82  A    between atoms: _190  and  _192
REMARK   83  A    between atoms: _192  and  _193
REMARK   84  A    between atoms: _192  and  _195
REMARK   85  A    between atoms: _195  and  _196
REMARK   86  A    between atoms: _199  and  _201
REMARK   87  A    between atoms: _201  and  _202
REMARK   88  A    between atoms: _201  and  _204
REMARK   89  A    between atoms: _207  and  _209
REMARK   90  A    between atoms: _209  and  _210
REMARK   91  A    between atoms: _209  and  _212
REMARK   92  A    between atoms: _212  and  _213
REMARK   93  A    between atoms: _213  and  _214
REMARK   94  A    between atoms: _214  and  _215
REMARK   95  A    between atoms: _224  and  _226
REMARK   96  A    between atoms: _226  and  _227
REMARK   97  A    between atoms: _226  and  _229
REMARK   98  A    between atoms: _229  and  _230
REMARK   99  A    between atoms: _233  and  _235
REMARK  100  A    between atoms: _235  and  _236
REMARK  101  A    between atoms: _235  and  _238
REMARK  102  A    between atoms: _238  and  _239
REMARK  103  A    between atoms: _242  and  _244
REMARK  104  A    between atoms: _244  and  _245
REMARK  105  A    between atoms: _244  and  _247
REMARK  106  A    between atoms: _247  and  _248
REMARK  107  A    between atoms: _248  and  _249
REMARK  108  A    between atoms: _254  and  _256
REMARK  109  A    between atoms: _256  and  _257
REMARK  110  A    between atoms: _256  and  _259
REMARK  111  A    between atoms: _262  and  _264
REMARK  112  A    between atoms: _264  and  _265
REMARK  113  A    between atoms: _264  and  _267
REMARK  114  A    between atoms: _267  and  _268
REMARK  115  A    between atoms: _271  and  _273
REMARK  116  A    between atoms: _273  and  _274
REMARK  117  A    between atoms: _273  and  _276
REMARK  118  A    between atoms: _276  and  _277
REMARK  119  A    between atoms: _277  and  _278
REMARK  120  A    between atoms: _280  and  _282
REMARK  121  A    between atoms: _282  and  _283
REMARK  122  A    between atoms: _282  and  _285
REMARK  123  A    between atoms: _285  and  _286
REMARK  124  A    between atoms: _286  and  _287
REMARK  125  A    between atoms: _290  and  _292
REMARK  126  A    between atoms: _292  and  _293
REMARK  127  A    between atoms: _292  and  _295
REMARK  128  A    between atoms: _295  and  _296
REMARK  129  A    between atoms: _299  and  _301
REMARK  130  A    between atoms: _301  and  _302
REMARK  131  A    between atoms: _301  and  _304
REMARK  132  A    between atoms: _304  and  _305
REMARK  133  A    between atoms: _308  and  _310
REMARK  134  A    between atoms: _310  and  _311
REMARK  135  A    between atoms: _310  and  _313
REMARK  136  A    between atoms: _313  and  _314
REMARK  137  A    between atoms: _319  and  _321
REMARK  138  A    between atoms: _321  and  _322
REMARK  139  A    between atoms: _325  and  _327
REMARK  140  A    between atoms: _327  and  _328
REMARK  141  A    between atoms: _327  and  _330
REMARK  142  A    between atoms: _330  and  _331
REMARK  143  A    between atoms: _334  and  _336
REMARK  144  A    between atoms: _336  and  _337
REMARK  145  A    between atoms: _336  and  _339
REMARK  146  A    between atoms: _342  and  _344
REMARK  147  A    between atoms: _344  and  _345
REMARK  148  A    between atoms: _344  and  _347
REMARK  149  A    between atoms: _347  and  _348
REMARK  150  A    between atoms: _348  and  _349
REMARK  151  A    between atoms: _349  and  _350
REMARK  152  A    between atoms: _359  and  _361
REMARK  153  A    between atoms: _361  and  _362
REMARK  154  A    between atoms: _361  and  _364
REMARK  155  A    between atoms: _364  and  _365
REMARK  156  A    between atoms: _368  and  _370
REMARK  157  A    between atoms: _370  and  _371
REMARK  158  A    between atoms: _370  and  _373
REMARK  159  A    between atoms: _373  and  _374
REMARK  160  A    between atoms: _377  and  _379
REMARK  161  A    between atoms: _379  and  _380
REMARK  162  A    between atoms: _379  and  _382
REMARK  163  A    between atoms: _382  and  _383
REMARK  164  A    between atoms: _383  and  _384
REMARK  165  A    between atoms: _389  and  _391
REMARK  166  A    between atoms: _391  and  _392
REMARK  167  A    between atoms: _391  and  _394
REMARK  168  A    between atoms: _397  and  _399
REMARK  169  A    between atoms: _399  and  _400
REMARK  170  A    between atoms: _399  and  _402
REMARK  171  A    between atoms: _402  and  _403
REMARK  172  A    between atoms: _406  and  _408
REMARK  173  A    between atoms: _408  and  _409
REMARK  174  A    between atoms: _408  and  _411
REMARK  175  A    between atoms: _411  and  _412
REMARK  176  A    between atoms: _412  and  _413
REMARK  177  A    between atoms: _415  and  _417
REMARK  178  A    between atoms: _417  and  _418
REMARK  179  A    between atoms: _417  and  _420
REMARK  180  A    between atoms: _420  and  _421
REMARK  181  A    between atoms: _421  and  _422
REMARK  182  A    between atoms: _425  and  _427
REMARK  183  A    between atoms: _427  and  _428
REMARK  184  A    between atoms: _427  and  _430
REMARK  185  A    between atoms: _430  and  _431
REMARK  186  A    between atoms: _434  and  _436
REMARK  187  A    between atoms: _436  and  _437
REMARK  188  A    between atoms: _436  and  _439
REMARK  189  A    between atoms: _439  and  _440
REMARK  190  A    between atoms: _443  and  _445
REMARK  191  A    between atoms: _445  and  _446
REMARK  192  A    between atoms: _445  and  _448
REMARK  193  A    between atoms: _448  and  _449
REMARK  194  A    between atoms: _454  and  _456
REMARK  195  A    between atoms: _456  and  _457
REMARK  196  A    between atoms: _460  and  _462
REMARK  197  A    between atoms: _462  and  _463
REMARK  198  A    between atoms: _462  and  _465
REMARK  199  A    between atoms: _465  and  _466
REMARK  200  A    between atoms: _469  and  _471
REMARK  201  A    between atoms: _471  and  _472
REMARK  202  A    between atoms: _471  and  _474
REMARK  203  A    between atoms: _477  and  _479
REMARK  204  A    between atoms: _479  and  _480
REMARK  205  A    between atoms: _479  and  _482
REMARK  206  A    between atoms: _482  and  _483
REMARK  207  A    between atoms: _483  and  _484
REMARK  208  A    between atoms: _484  and  _485
REMARK  209  A    between atoms: _494  and  _496
REMARK  210  A    between atoms: _496  and  _497
REMARK  211  A    between atoms: _496  and  _499
REMARK  212  A    between atoms: _499  and  _500
REMARK  213  A    between atoms: _503  and  _505
REMARK  214  A    between atoms: _505  and  _506
REMARK  215  A    between atoms: _505  and  _508
REMARK  216  A    between atoms: _508  and  _509
REMARK  217  A    between atoms: _512  and  _514
REMARK  218  A    between atoms: _514  and  _515
REMARK  219  A    between atoms: _514  and  _517
REMARK  220  A    between atoms: _517  and  _518
REMARK  221  A    between atoms: _518  and  _519
REMARK  222  A    between atoms: _524  and  _526
REMARK  223  A    between atoms: _526  and  _527
REMARK  224  A    between atoms: _526  and  _529
REMARK  225  A    between atoms: _532  and  _534
REMARK  226  A    between atoms: _534  and  _535
REMARK  227  A    between atoms: _534  and  _537
REMARK  228  A    between atoms: _537  and  _538
REMARK  229  A    between atoms: _541  and  _543
REMARK  230  A    between atoms: _543  and  _544
REMARK  231  A    between atoms: _543  and  _546
REMARK  232  A    between atoms: _546  and  _547
REMARK  233  A    between atoms: _547  and  _548
REMARK  234  A    between atoms: _550  and  _552
REMARK  235  A    between atoms: _552  and  _553
REMARK  236  A    between atoms: _552  and  _555
REMARK  237  A    between atoms: _555  and  _556
REMARK  238  A    between atoms: _556  and  _557
REMARK  239  A    between atoms: _560  and  _562
REMARK  240  A    between atoms: _562  and  _563
REMARK  241  A    between atoms: _562  and  _565
REMARK  242  A    between atoms: _565  and  _566
REMARK  243  A    between atoms: _569  and  _571
REMARK  244  A    between atoms: _571  and  _572
REMARK  245  A    between atoms: _571  and  _574
REMARK  246  A    between atoms: _574  and  _575
REMARK  247  A    between atoms: _575  and  _576
REMARK  248  A    between atoms: _581  and  _583
REMARK  249  A    between atoms: _583  and  _584
REMARK  250  A    between atoms: _583  and  _586
REMARK  251  A    between atoms: _586  and  _587
REMARK  252  A    between atoms: _590  and  _592
REMARK  253  A    between atoms: _592  and  _593
REMARK  254  A    between atoms: _592  and  _595
REMARK  255  A    between atoms: _595  and  _596
REMARK  256  A    between atoms: _601  and  _603
REMARK  257  A    between atoms: _603  and  _604
REMARK  258  A    between atoms: _607  and  _609
REMARK  259  A    between atoms: _609  and  _610
REMARK  260  A    between atoms: _609  and  _612
REMARK  261  A    between atoms: _612  and  _613
REMARK  262  A    between atoms: _616  and  _618
REMARK  263  A    between atoms: _618  and  _619
REMARK  264  A    between atoms: _618  and  _621
REMARK  265  A    between atoms: _624  and  _626
REMARK  266  A    between atoms: _626  and  _627
REMARK  267  A    between atoms: _626  and  _629
REMARK  268  A    between atoms: _629  and  _630
REMARK  269  A    between atoms: _630  and  _631
REMARK  270  A    between atoms: _631  and  _632
REMARK  271  A    between atoms: _641  and  _643
REMARK  272  A    between atoms: _643  and  _644
REMARK  273  A    between atoms: _643  and  _646
REMARK  274  A    between atoms: _646  and  _647
REMARK  275  A    between atoms: _650  and  _652
REMARK  276  A    between atoms: _652  and  _653
REMARK  277  A    between atoms: _652  and  _655
REMARK  278  A    between atoms: _655  and  _656
REMARK  279  A    between atoms: _659  and  _661
REMARK  280  A    between atoms: _661  and  _662
REMARK  281  A    between atoms: _661  and  _664
REMARK  282  A    between atoms: _664  and  _665
REMARK  283  A    between atoms: _665  and  _666
REMARK  284  A    between atoms: _666  and  _667
REMARK  285  A    between atoms: _676  and  _678
REMARK  286  A    between atoms: _678  and  _679
REMARK  287  A    between atoms: _678  and  _681
REMARK  288  A    between atoms: _681  and  _682
REMARK  289  A    between atoms: _682  and  _683
REMARK  290  A    between atoms: _688  and  _690
REMARK  291  A    between atoms: _690  and  _691
REMARK  292  A    between atoms: _690  and  _693
REMARK  293  A    between atoms: _696  and  _698
REMARK  294  A    between atoms: _698  and  _699
REMARK  295  A    between atoms: _698  and  _701
REMARK  296  A    between atoms: _701  and  _702
REMARK                            x       y       z     vdW  Elec       q    Type
REMARK                         _______ _______ _______ _____ _____    ______ ____
ROOT
ATOM      1  CA  GLN A   1      -2.306   6.517  14.890  0.00  0.00    +0.145 C 
ENDROOT
BRANCH   1   2
ATOM      2  C   GLN A   1      -1.870   6.060  16.284  0.00  0.00    +0.238 C 
ATOM      3  O   GLN A   1      -2.711   5.732  17.119  0.00  0.00    -0.274 OA
ATOM      4  N   VAL A   2      -0.567   6.033  16.546  0.00  0.00    -0.298 N 
ATOM      5  H   VAL A   2       0.115   6.318  15.814  0.00  0.00    +0.150 HD
BRANCH   4   6
ATOM      6  CA  VAL A   2      -0.091   5.605  17.857  0.00  0.00    +0.137 C 
BRANCH   6   7
ATOM      7  CB  VAL A   2       1.448   5.558  17.918  0.00  0.00    +0.026 C 
ATOM      8  CG2 VAL A   2       2.021   6.945  17.698  0.00  0.00    +0.002 C 
ATOM      9  CG1 VAL A   2       1.977   4.590  16.874  0.00  0.00    +0.002 C 
ENDBRANCH   6   7
BRANCH   6  10
ATOM     10  C   VAL A   2      -0.603   6.569  18.926  0.00  0.00    +0.227 C 
ATOM     11  O   VAL A   2      -0.850   6.182  20.067  0.00  0.00    -0.286 OA
ENDBRANCH   6  10
ENDBRANCH   4   6
ENDBRANCH   1   2
BRANCH   1  12
ATOM     12  N   GLN A   1      -1.639   7.720  14.416  0.00  0.00    -0.238 NA
ATOM     13  H   GLN A   1      -1.072   7.687  13.545  0.00  0.00    +0.142 HD
ENDBRANCH   1  12
BRANCH   1  14
ATOM     14  CB  GLN A   1      -2.118   5.386  13.879  0.00  0.00    +0.036 C 
BRANCH  14  15
ATOM     15  CG  GLN A   1      -2.872   4.118  14.223  0.00  0.00    +0.087 C 
BRANCH  15  16
ATOM     16  CD  GLN A   1      -2.795   3.081  13.119  0.00  0.00    +0.219 C 
ATOM     17  NE2 GLN A   1      -1.833   2.181  13.230  0.00  0.00    -0.329 N 
ATOM     18 HE21 GLN A   1      -1.190   2.205  14.047  0.00  0.00    +0.145 HD
ATOM     19 HE22 GLN A   1      -1.719   1.449  12.500  0.00  0.00    +0.145 HD
ATOM     20  OE1 GLN A   1      -3.585   3.098  12.170  0.00  0.00    -0.275 OA
ENDBRANCH  15  16
ENDBRANCH  14  15
ENDBRANCH   1  14
TORSDOF 8
REMARK  Name = ../refined-set-2016/3v2p/3v2p_pocket.pdb
REMARK  296 active torsions:
REMARK  status: ('A' for Active; 'I' for Inactive)
REMARK    1  A    between atoms: _1  and  _3
REMARK    2  A    between atoms: _3  and  _4
REMARK    3  A    between atoms: _3  and  _6
REMARK    4  A    between atoms: _6  and  _7
REMARK    5  A    between atoms: _7  and  _8
REMARK    6  A    between atoms: _10  and  _12
REMARK    7  A    between atoms: _12  and  _13
REMARK    8  A    between atoms: _12  and  _15
REMARK    9  A    between atoms: _15  and  _16
REMARK   10  A    between atoms: _16  and  _17
REMARK   11  A    between atoms: _20  and  _22
REMARK   12  A    between atoms: _22  and  _23
REMARK   13  A    between atoms: _22  and  _25
REMARK   14  A    between atoms: _25  and  _26
REMARK   15  A    between atoms: _29  and  _31
REMARK   16  A    between atoms: _31  and  _32
REMARK   17  A    between atoms: _31  and  _34
REMARK   18  A    between atoms: _34  and  _35
REMARK   19  A    between atoms: _38  and  _40
REMARK   20  A    between atoms: _40  and  _41
REMARK   21  A    between atoms: _40  and  _43
REMARK   22  A    between atoms: _43  and  _44
REMARK   23  A    between atoms: _49  and  _51
REMARK   24  A    between atoms: _51  and  _52
REMARK   25  A    between atoms: _55  and  _57
REMARK   26  A    between atoms: _57  and  _58
REMARK   27  A    between atoms: _57  and  _60
REMARK   28  A    between atoms: _60  and  _61
REMARK   29  A    between atoms: _64  and  _66
REMARK   30  A    between atoms: _66  and  _67
REMARK   31  A    between atoms: _66  and  _69
REMARK   32  A    between atoms: _72  and  _74
REMARK   33  A    between atoms: _74  and  _75
REMARK   34  A    between atoms: _74  and  _77
REMARK   35  A    between atoms: _77  and  _78
REMARK   36  A    between atoms: _78  and  _79
REMARK   37  A    between atoms: _79  and  _80
REMARK   38  A    between atoms: _89  and  _91
REMARK   39  A    between atoms: _91  and  _92
REMARK   40  A    between atoms: _91  and  _94
REMARK   41  A    between atoms: _94  and  _95
REMARK   42  A    between atoms: _98  and  _100
REMARK   43  A    between atoms: _100  and  _101
REMARK   44  A    between atoms: _100  and  _103
REMARK   45  A    between atoms: _103  and  _104
REMARK   46  A    between atoms: _107  and  _109
REMARK   47  A    between atoms: _109  and  _110
REMARK   48  A    between atoms: _109  and  _112
REMARK   49  A    between atoms: _112  and  _113
REMARK   50  A    between atoms: _113  and  _114
REMARK   51  A    between atoms: _119  and  _121
REMARK   52  A    between atoms: _121  and  _122
REMARK   53  A    between atoms: _121  and  _124
REMARK   54  A    between atoms: _127  and  _129
REMARK   55  A    between atoms: _129  and  _130
REMARK   56  A    between atoms: _129  and  _132
REMARK   57  A    between atoms: _132  and  _133
REMARK   58  A    between atoms: _136  and  _138
REMARK   59  A    between atoms: _138  and  _139
REMARK   60  A    between atoms: _138  and  _141
REMARK   61  A    between atoms: _141  and  _142
REMARK   62  A    between atoms: _142  and  _143
REMARK   63  A    between atoms: _145  and  _147
REMARK   64  A    between atoms: _147  and  _148
REMARK   65  A    between atoms: _147  and  _150
REMARK   66  A    between atoms: _150  and  _151
REMARK   67  A    between atoms: _151  and  _152
REMARK   68  A    between atoms: _155  and  _157
REMARK   69  A    between atoms: _157  and  _158
REMARK   70  A    between atoms: _157  and  _160
REMARK   71  A    between atoms: _160  and  _161
REMARK   72  A    between atoms: _164  and  _166
REMARK   73  A    between atoms: _166  and  _167
REMARK   74  A    between atoms: _166  and  _169
REMARK   75  A    between atoms: _169  and  _170
REMARK   76  A    between atoms: _173  and  _175
REMARK   77  A    between atoms: _175  and  _176
REMARK   78  A    between atoms: _175  and  _178
REMARK   79  A    between atoms: _178  and  _179
REMARK   80  A    between atoms: _184  and  _186
REMARK   81  A    between atoms: _186  and  _187
REMARK   82  A    between atoms: _190  and  _192
REMARK   83  A    between atoms: _192  and  _193
REMARK   84  A    between atoms: _192  and  _195
REMARK   85  A    between atoms: _195  and  _196
REMARK   86  A    between atoms: _199  and  _201
REMARK   87  A    between atoms: _201  and  _202
REMARK   88  A    between atoms: _201  and  _204
REMARK   89  A    between atoms: _207  and  _209
REMARK   90  A    between atoms: _209  and  _210
REMARK   91  A    between atoms: _209  and  _212
REMARK   92  A    between atoms: _212  and  _213
REMARK   93  A    between atoms: _213  and  _214
REMARK   94  A    between atoms: _214  and  _215
REMARK   95  A    between atoms: _224  and  _226
REMARK   96  A    between atoms: _226  and  _227
REMARK   97  A    between atoms: _226  and  _229
REMARK   98  A    between atoms: _229  and  _230
REMARK   99  A    between atoms: _233  and  _235
REMARK  100  A    between atoms: _235  and  _236
REMARK  101  A    between atoms: _235  and  _238
REMARK  102  A    between atoms: _238  and  _239
REMARK  103  A    between atoms: _242  and  _244
REMARK  104  A    between atoms: _244  and  _245
REMARK  105  A    between atoms: _244  and  _247
REMARK  106  A    between atoms: _247  and  _248
REMARK  107  A    between atoms: _248  and  _249
REMARK  108  A    between atoms: _254  and  _256
REMARK  109  A    between atoms: _256  and  _257
REMARK  110  A    between atoms: _256  and  _259
REMARK  111  A    between atoms: _262  and  _264
REMARK  112  A    between atoms: _264  and  _265
REMARK  113  A    between atoms: _264  and  _267
REMARK  114  A    between atoms: _267  and  _268
REMARK  115  A    between atoms: _271  and  _273
REMARK  116  A    between atoms: _273  and  _274
REMARK  117  A    between atoms: _273  and  _276
REMARK  118  A    between atoms: _276  and  _277
REMARK  119  A    between atoms: _277  and  _278
REMARK  120  A    between atoms: _280  and  _282
REMARK  121  A    between atoms: _282  and  _283
REMARK  122  A    between atoms: _282  and  _285
REMARK  123  A    between atoms: _285  and  _286
REMARK  124  A    between atoms: _286  and  _287
REMARK  125  A    between atoms: _290  and  _292
REMARK  126  A    between atoms: _292  and  _293
REMARK  127  A    between atoms: _292  and  _295
REMARK  128  A    between atoms: _295  and  _296
REMARK  129  A    between atoms: _299  and  _301
REMARK  130  A    between atoms: _301  and  _302
REMARK  131  A    between atoms: _301  and  _304
REMARK  132  A    between atoms: _304  and  _305
REMARK  133  A    between atoms: _308  and  _310
REMARK  134  A    between atoms: _310  and  _311
REMARK  135  A    between atoms: _310  and  _313
REMARK  136  A    between atoms: _313  and  _314
REMARK  137  A    between atoms: _319  and  _321
REMARK  138  A    between atoms: _321  and  _322
REMARK  139  A    between atoms: _325  and  _327
REMARK  140  A    between atoms: _327  and  _328
REMARK  141  A    between atoms: _327  and  _330
REMARK  142  A    between atoms: _330  and  _331
REMARK  143  A    between atoms: _334  and  _336
REMARK  144  A    between atoms: _336  and  _337
REMARK  145  A    between atoms: _336  and  _339
REMARK  146  A    between atoms: _342  and  _344
REMARK  147  A    between atoms: _344  and  _345
REMARK  148  A    between atoms: _344  and  _347
REMARK  149  A    between atoms: _347  and  _348
REMARK  150  A    between atoms: _348  and  _349
REMARK  151  A    between atoms: _349  and  _350
REMARK  152  A    between atoms: _359  and  _361
REMARK  153  A    between atoms: _361  and  _362
REMARK  154  A    between atoms: _361  and  _364
REMARK  155  A    between atoms: _364  and  _365
REMARK  156  A    between atoms: _368  and  _370
REMARK  157  A    between atoms: _370  and  _371
REMARK  158  A    between atoms: _370  and  _373
REMARK  159  A    between atoms: _373  and  _374
REMARK  160  A    between atoms: _377  and  _379
REMARK  161  A    between atoms: _379  and  _380
REMARK  162  A    between atoms: _379  and  _382
REMARK  163  A    between atoms: _382  and  _383
REMARK  164  A    between atoms: _383  and  _384
REMARK  165  A    between atoms: _389  and  _391
REMARK  166  A    between atoms: _391  and  _392
REMARK  167  A    between atoms: _391  and  _394
REMARK  168  A    between atoms: _397  and  _399
REMARK  169  A    between atoms: _399  and  _400
REMARK  170  A    between atoms: _399  and  _402
REMARK  171  A    between atoms: _402  and  _403
REMARK  172  A    between atoms: _406  and  _408
REMARK  173  A    between atoms: _408  and  _409
REMARK  174  A    between atoms: _408  and  _411
REMARK  175  A    between atoms: _411  and  _412
REMARK  176  A    between atoms: _412  and  _413
REMARK  177  A    between atoms: _415  and  _417
REMARK  178  A    between atoms: _417  and  _418
REMARK  179  A    between atoms: _417  and  _420
REMARK  180  A    between atoms: _420  and  _421
REMARK  181  A    between atoms: _421  and  _422
REMARK  182  A    between atoms: _425  and  _427
REMARK  183  A    between atoms: _427  and  _428
REMARK  184  A    between atoms: _427  and  _430
REMARK  185  A    between atoms: _430  and  _431
REMARK  186  A    between atoms: _434  and  _436
REMARK  187  A    between atoms: _436  and  _437
REMARK  188  A    between atoms: _436  and  _439
REMARK  189  A    between atoms: _439  and  _440
REMARK  190  A    between atoms: _443  and  _445
REMARK  191  A    between atoms: _445  and  _446
REMARK  192  A    between atoms: _445  and  _448
REMARK  193  A    between atoms: _448  and  _449
REMARK  194  A    between atoms: _454  and  _456
REMARK  195  A    between atoms: _456  and  _457
REMARK  196  A    between atoms: _460  and  _462
REMARK  197  A    between atoms: _462  and  _463
REMARK  198  A    between atoms: _462  and  _465
REMARK  199  A    between atoms: _465  and  _466
REMARK  200  A    between atoms: _469  and  _471
REMARK  201  A    between atoms: _471  and  _472
REMARK  202  A    between atoms: _471  and  _474
REMARK  203  A    between atoms: _477  and  _479
REMARK  204  A    between atoms: _479  and  _480
REMARK  205  A    between atoms: _479  and  _482
REMARK  206  A    between atoms: _482  and  _483
REMARK  207  A    between atoms: _483  and  _484
REMARK  208  A    between atoms: _484  and  _485
REMARK  209  A    between atoms: _494  and  _496
REMARK  210  A    between atoms: _496  and  _497
REMARK  211  A    between atoms: _496  and  _499
REMARK  212  A    between atoms: _499  and  _500
REMARK  213  A    between atoms: _503  and  _505
REMARK  214  A    between atoms: _505  and  _506
REMARK  215  A    between atoms: _505  and  _508
REMARK  216  A    between atoms: _508  and  _509
REMARK  217  A    between atoms: _512  and  _514
REMARK  218  A    between atoms: _514  and  _515
REMARK  219  A    between atoms: _514  and  _517
REMARK  220  A    between atoms: _517  and  _518
REMARK  221  A    between atoms: _518  and  _519
REMARK  222  A    between atoms: _524  and  _526
REMARK  223  A    between atoms: _526  and  _527
REMARK  224  A    between atoms: _526  and  _529
REMARK  225  A    between atoms: _532  and  _534
REMARK  226  A    between atoms: _534  and  _535
REMARK  227  A    between atoms: _534  and  _537
REMARK  228  A    between atoms: _537  and  _538
REMARK  229  A    between atoms: _541  and  _543
REMARK  230  A    between atoms: _543  and  _544
REMARK  231  A    between atoms: _543  and  _546
REMARK  232  A    between atoms: _546  and  _547
REMARK  233  A    between atoms: _547  and  _548
REMARK  234  A    between atoms: _550  and  _552
REMARK  235  A    between atoms: _552  and  _553
REMARK  236  A    between atoms: _552  and  _555
REMARK  237  A    between atoms: _555  and  _556
REMARK  238  A    between atoms: _556  and  _557
REMARK  239  A    between atoms: _560  and  _562
REMARK  240  A    between atoms: _562  and  _563
REMARK  241  A    between atoms: _562  and  _565
REMARK  242  A    between atoms: _565  and  _566
REMARK  243  A    between atoms: _569  and  _571
REMARK  244  A    between atoms: _571  and  _572
REMARK  245  A    between atoms: _571  and  _574
REMARK  246  A    between atoms: _574  and  _575
REMARK  247  A    between atoms: _575  and  _576
REMARK  248  A    between atoms: _581  and  _583
REMARK  249  A    between atoms: _583  and  _584
REMARK  250  A    between atoms: _583  and  _586
REMARK  251  A    between atoms: _586  and  _587
REMARK  252  A    between atoms: _590  and  _592
REMARK  253  A    between atoms: _592  and  _593
REMARK  254  A    between atoms: _592  and  _595
REMARK  255  A    between atoms: _595  and  _596
REMARK  256  A    between atoms: _601  and  _603
REMARK  257  A    between atoms: _603  and  _604
REMARK  258  A    between atoms: _607  and  _609
REMARK  259  A    between atoms: _609  and  _610
REMARK  260  A    between atoms: _609  and  _612
REMARK  261  A    between atoms: _612  and  _613
REMARK  262  A    between atoms: _616  and  _618
REMARK  263  A    between atoms: _618  and  _619
REMARK  264  A    between atoms: _618  and  _621
REMARK  265  A    between atoms: _624  and  _626
REMARK  266  A    between atoms: _626  and  _627
REMARK  267  A    between atoms: _626  and  _629
REMARK  268  A    between atoms: _629  and  _630
REMARK  269  A    between atoms: _630  and  _631
REMARK  270  A    between atoms: _631  and  _632
REMARK  271  A    between atoms: _641  and  _643
REMARK  272  A    between atoms: _643  and  _644
REMARK  273  A    between atoms: _643  and  _646
REMARK  274  A    between atoms: _646  and  _647
REMARK  275  A    between atoms: _650  and  _652
REMARK  276  A    between atoms: _652  and  _653
REMARK  277  A    between atoms: _652  and  _655
REMARK  278  A    between atoms: _655  and  _656
REMARK  279  A    between atoms: _659  and  _661
REMARK  280  A    between atoms: _661  and  _662
REMARK  281  A    between atoms: _661  and  _664
REMARK  282  A    between atoms: _664  and  _665
REMARK  283  A    between atoms: _665  and  _666
REMARK  284  A    between atoms: _666  and  _667
REMARK  285  A    between atoms: _676  and  _678
REMARK  286  A    between atoms: _678  and  _679
REMARK  287  A    between atoms: _678  and  _681
REMARK  288  A    between atoms: _681  and  _682
REMARK  289  A    between atoms: _682  and  _683
REMARK  290  A    between atoms: _688  and  _690
REMARK  291  A    between atoms: _690  and  _691
REMARK  292  A    between atoms: _690  and  _693
REMARK  293  A    between atoms: _696  and  _698
REMARK  294  A    between atoms: _698  and  _699
REMARK  295  A    between atoms: _698  and  _701
REMARK  296  A    between atoms: _701  and  _702
REMARK                            x       y       z     vdW  Elec       q    Type
REMARK                         _______ _______ _______ _____ _____    ______ ____
ROOT
ATOM      1  CA  ILE A   1      -4.151   4.379  20.440  0.00  0.00    +0.133 C 
ENDROOT
BRANCH   1   2
ATOM      2  N   ILE A   1      -4.152   5.623  19.677  0.00  0.00    -0.239 NA
ATOM      3  H   ILE A   1      -3.471   5.748  18.901  0.00  0.00    +0.142 HD
ENDBRANCH   1   2
BRANCH   1   4
ATOM      4  C   ILE A   1      -3.753   4.663  21.879  0.00  0.00    +0.224 C 
ATOM      5  O   ILE A   1      -4.329   4.104  22.820  0.00  0.00    -0.287 OA
ENDBRANCH   1   4
BRANCH   1   6
ATOM      6  CB  ILE A   1      -3.181   3.348  19.822  0.00  0.00    +0.023 C 
ATOM      7  CG2 ILE A   1      -2.999   2.153  20.760  0.00  0.00    +0.002 C 
BRANCH   6   8
ATOM      8  CG1 ILE A   1      -3.719   2.904  18.461  0.00  0.00    +0.002 C 
ATOM      9  CD1 ILE A   1      -2.746   2.071  17.656  0.00  0.00    +0.000 C 
ENDBRANCH   6   8
ENDBRANCH   1   6
TORSDOF 4
REMARK  Name = ../refined-set-2016/3v2p/3v2p_pocket.pdb
REMARK  296 active torsions:
REMARK  status: ('A' for Active; 'I' for Inactive)
REMARK    1  A    between atoms: _1  and  _3
REMARK    2  A    between atoms: _3  and  _4
REMARK    3  A    between atoms: _3  and  _6
REMARK    4  A    between atoms: _6  and  _7
REMARK    5  A    between atoms: _7  and  _8
REMARK    6  A    between atoms: _10  and  _12
REMARK    7  A    between atoms: _12  and  _13
REMARK    8  A    between atoms: _12  and  _15
REMARK    9  A    between atoms: _15  and  _16
REMARK   10  A    between atoms: _16  and  _17
REMARK   11  A    between atoms: _20  and  _22
REMARK   12  A    between atoms: _22  and  _23
REMARK   13  A    between atoms: _22  and  _25
REMARK   14  A    between atoms: _25  and  _26
REMARK   15  A    between atoms: _29  and  _31
REMARK   16  A    between atoms: _31  and  _32
REMARK   17  A    between atoms: _31  and  _34
REMARK   18  A    between atoms: _34  and  _35
REMARK   19  A    between atoms: _38  and  _40
REMARK   20  A    between atoms: _40  and  _41
REMARK   21  A    between atoms: _40  and  _43
REMARK   22  A    between atoms: _43  and  _44
REMARK   23  A    between atoms: _49  and  _51
REMARK   24  A    between atoms: _51  and  _52
REMARK   25  A    between atoms: _55  and  _57
REMARK   26  A    between atoms: _57  and  _58
REMARK   27  A    between atoms: _57  and  _60
REMARK   28  A    between atoms: _60  and  _61
REMARK   29  A    between atoms: _64  and  _66
REMARK   30  A    between atoms: _66  and  _67
REMARK   31  A    between atoms: _66  and  _69
REMARK   32  A    between atoms: _72  and  _74
REMARK   33  A    between atoms: _74  and  _75
REMARK   34  A    between atoms: _74  and  _77
REMARK   35  A    between atoms: _77  and  _78
REMARK   36  A    between atoms: _78  and  _79
REMARK   37  A    between atoms: _79  and  _80
REMARK   38  A    between atoms: _89  and  _91
REMARK   39  A    between atoms: _91  and  _92
REMARK   40  A    between atoms: _91  and  _94
REMARK   41  A    between atoms: _94  and  _95
REMARK   42  A    between atoms: _98  and  _100
REMARK   43  A    between atoms: _100  and  _101
REMARK   44  A    between atoms: _100  and  _103
REMARK   45  A    between atoms: _103  and  _104
REMARK   46  A    between atoms: _107  and  _109
REMARK   47  A    between atoms: _109  and  _110
REMARK   48  A    between atoms: _109  and  _112
REMARK   49  A    between atoms: _112  and  _113
REMARK   50  A    between atoms: _113  and  _114
REMARK   51  A    between atoms: _119  and  _121
REMARK   52  A    between atoms: _121  and  _122
REMARK   53  A    between atoms: _121  and  _124
REMARK   54  A    between atoms: _127  and  _129
REMARK   55  A    between atoms: _129  and  _130
REMARK   56  A    between atoms: _129  and  _132
REMARK   57  A    between atoms: _132  and  _133
REMARK   58  A    between atoms: _136  and  _138
REMARK   59  A    between atoms: _138  and  _139
REMARK   60  A    between atoms: _138  and  _141
REMARK   61  A    between atoms: _141  and  _142
REMARK   62  A    between atoms: _142  and  _143
REMARK   63  A    between atoms: _145  and  _147
REMARK   64  A    between atoms: _147  and  _148
REMARK   65  A    between atoms: _147  and  _150
REMARK   66  A    between atoms: _150  and  _151
REMARK   67  A    between atoms: _151  and  _152
REMARK   68  A    between atoms: _155  and  _157
REMARK   69  A    between atoms: _157  and  _158
REMARK   70  A    between atoms: _157  and  _160
REMARK   71  A    between atoms: _160  and  _161
REMARK   72  A    between atoms: _164  and  _166
REMARK   73  A    between atoms: _166  and  _167
REMARK   74  A    between atoms: _166  and  _169
REMARK   75  A    between atoms: _169  and  _170
REMARK   76  A    between atoms: _173  and  _175
REMARK   77  A    between atoms: _175  and  _176
REMARK   78  A    between atoms: _175  and  _178
REMARK   79  A    between atoms: _178  and  _179
REMARK   80  A    between atoms: _184  and  _186
REMARK   81  A    between atoms: _186  and  _187
REMARK   82  A    between atoms: _190  and  _192
REMARK   83  A    between atoms: _192  and  _193
REMARK   84  A    between atoms: _192  and  _195
REMARK   85  A    between atoms: _195  and  _196
REMARK   86  A    between atoms: _199  and  _201
REMARK   87  A    between atoms: _201  and  _202
REMARK   88  A    between atoms: _201  and  _204
REMARK   89  A    between atoms: _207  and  _209
REMARK   90  A    between atoms: _209  and  _210
REMARK   91  A    between atoms: _209  and  _212
REMARK   92  A    between atoms: _212  and  _213
REMARK   93  A    between atoms: _213  and  _214
REMARK   94  A    between atoms: _214  and  _215
REMARK   95  A    between atoms: _224  and  _226
REMARK   96  A    between atoms: _226  and  _227
REMARK   97  A    between atoms: _226  and  _229
REMARK   98  A    between atoms: _229  and  _230
REMARK   99  A    between atoms: _233  and  _235
REMARK  100  A    between atoms: _235  and  _236
REMARK  101  A    between atoms: _235  and  _238
REMARK  102  A    between atoms: _238  and  _239
REMARK  103  A    between atoms: _242  and  _244
REMARK  104  A    between atoms: _244  and  _245
REMARK  105  A    between atoms: _244  and  _247
REMARK  106  A    between atoms: _247  and  _248
REMARK  107  A    between atoms: _248  and  _249
REMARK  108  A    between atoms: _254  and  _256
REMARK  109  A    between atoms: _256  and  _257
REMARK  110  A    between atoms: _256  and  _259
REMARK  111  A    between atoms: _262  and  _264
REMARK  112  A    between atoms: _264  and  _265
REMARK  113  A    between atoms: _264  and  _267
REMARK  114  A    between atoms: _267  and  _268
REMARK  115  A    between atoms: _271  and  _273
REMARK  116  A    between atoms: _273  and  _274
REMARK  117  A    between atoms: _273  and  _276
REMARK  118  A    between atoms: _276  and  _277
REMARK  119  A    between atoms: _277  and  _278
REMARK  120  A    between atoms: _280  and  _282
REMARK  121  A    between atoms: _282  and  _283
REMARK  122  A    between atoms: _282  and  _285
REMARK  123  A    between atoms: _285  and  _286
REMARK  124  A    between atoms: _286  and  _287
REMARK  125  A    between atoms: _290  and  _292
REMARK  126  A    between atoms: _292  and  _293
REMARK  127  A    between atoms: _292  and  _295
REMARK  128  A    between atoms: _295  and  _296
REMARK  129  A    between atoms: _299  and  _301
REMARK  130  A    between atoms: _301  and  _302
REMARK  131  A    between atoms: _301  and  _304
REMARK  132  A    between atoms: _304  and  _305
REMARK  133  A    between atoms: _308  and  _310
REMARK  134  A    between atoms: _310  and  _311
REMARK  135  A    between atoms: _310  and  _313
REMARK  136  A    between atoms: _313  and  _314
REMARK  137  A    between atoms: _319  and  _321
REMARK  138  A    between atoms: _321  and  _322
REMARK  139  A    between atoms: _325  and  _327
REMARK  140  A    between atoms: _327  and  _328
REMARK  141  A    between atoms: _327  and  _330
REMARK  142  A    between atoms: _330  and  _331
REMARK  143  A    between atoms: _334  and  _336
REMARK  144  A    between atoms: _336  and  _337
REMARK  145  A    between atoms: _336  and  _339
REMARK  146  A    between atoms: _342  and  _344
REMARK  147  A    between atoms: _344  and  _345
REMARK  148  A    between atoms: _344  and  _347
REMARK  149  A    between atoms: _347  and  _348
REMARK  150  A    between atoms: _348  and  _349
REMARK  151  A    between atoms: _349  and  _350
REMARK  152  A    between atoms: _359  and  _361
REMARK  153  A    between atoms: _361  and  _362
REMARK  154  A    between atoms: _361  and  _364
REMARK  155  A    between atoms: _364  and  _365
REMARK  156  A    between atoms: _368  and  _370
REMARK  157  A    between atoms: _370  and  _371
REMARK  158  A    between atoms: _370  and  _373
REMARK  159  A    between atoms: _373  and  _374
REMARK  160  A    between atoms: _377  and  _379
REMARK  161  A    between atoms: _379  and  _380
REMARK  162  A    between atoms: _379  and  _382
REMARK  163  A    between atoms: _382  and  _383
REMARK  164  A    between atoms: _383  and  _384
REMARK  165  A    between atoms: _389  and  _391
REMARK  166  A    between atoms: _391  and  _392
REMARK  167  A    between atoms: _391  and  _394
REMARK  168  A    between atoms: _397  and  _399
REMARK  169  A    between atoms: _399  and  _400
REMARK  170  A    between atoms: _399  and  _402
REMARK  171  A    between atoms: _402  and  _403
REMARK  172  A    between atoms: _406  and  _408
REMARK  173  A    between atoms: _408  and  _409
REMARK  174  A    between atoms: _408  and  _411
REMARK  175  A    between atoms: _411  and  _412
REMARK  176  A    between atoms: _412  and  _413
REMARK  177  A    between atoms: _415  and  _417
REMARK  178  A    between atoms: _417  and  _418
REMARK  179  A    between atoms: _417  and  _420
REMARK  180  A    between atoms: _420  and  _421
REMARK  181  A    between atoms: _421  and  _422
REMARK  182  A    between atoms: _425  and  _427
REMARK  183  A    between atoms: _427  and  _428
REMARK  184  A    between atoms: _427  and  _430
REMARK  185  A    between atoms: _430  and  _431
REMARK  186  A    between atoms: _434  and  _436
REMARK  187  A    between atoms: _436  and  _437
REMARK  188  A    between atoms: _436  and  _439
REMARK  189  A    between atoms: _439  and  _440
REMARK  190  A    between atoms: _443  and  _445
REMARK  191  A    between atoms: _445  and  _446
REMARK  192  A    between atoms: _445  and  _448
REMARK  193  A    between atoms: _448  and  _449
REMARK  194  A    between atoms: _454  and  _456
REMARK  195  A    between atoms: _456  and  _457
REMARK  196  A    between atoms: _460  and  _462
REMARK  197  A    between atoms: _462  and  _463
REMARK  198  A    between atoms: _462  and  _465
REMARK  199  A    between atoms: _465  and  _466
REMARK  200  A    between atoms: _469  and  _471
REMARK  201  A    between atoms: _471  and  _472
REMARK  202  A    between atoms: _471  and  _474
REMARK  203  A    between atoms: _477  and  _479
REMARK  204  A    between atoms: _479  and  _480
REMARK  205  A    between atoms: _479  and  _482
REMARK  206  A    between atoms: _482  and  _483
REMARK  207  A    between atoms: _483  and  _484
REMARK  208  A    between atoms: _484  and  _485
REMARK  209  A    between atoms: _494  and  _496
REMARK  210  A    between atoms: _496  and  _497
REMARK  211  A    between atoms: _496  and  _499
REMARK  212  A    between atoms: _499  and  _500
REMARK  213  A    between atoms: _503  and  _505
REMARK  214  A    between atoms: _505  and  _506
REMARK  215  A    between atoms: _505  and  _508
REMARK  216  A    between atoms: _508  and  _509
REMARK  217  A    between atoms: _512  and  _514
REMARK  218  A    between atoms: _514  and  _515
REMARK  219  A    between atoms: _514  and  _517
REMARK  220  A    between atoms: _517  and  _518
REMARK  221  A    between atoms: _518  and  _519
REMARK  222  A    between atoms: _524  and  _526
REMARK  223  A    between atoms: _526  and  _527
REMARK  224  A    between atoms: _526  and  _529
REMARK  225  A    between atoms: _532  and  _534
REMARK  226  A    between atoms: _534  and  _535
REMARK  227  A    between atoms: _534  and  _537
REMARK  228  A    between atoms: _537  and  _538
REMARK  229  A    between atoms: _541  and  _543
REMARK  230  A    between atoms: _543  and  _544
REMARK  231  A    between atoms: _543  and  _546
REMARK  232  A    between atoms: _546  and  _547
REMARK  233  A    between atoms: _547  and  _548
REMARK  234  A    between atoms: _550  and  _552
REMARK  235  A    between atoms: _552  and  _553
REMARK  236  A    between atoms: _552  and  _555
REMARK  237  A    between atoms: _555  and  _556
REMARK  238  A    between atoms: _556  and  _557
REMARK  239  A    between atoms: _560  and  _562
REMARK  240  A    between atoms: _562  and  _563
REMARK  241  A    between atoms: _562  and  _565
REMARK  242  A    between atoms: _565  and  _566
REMARK  243  A    between atoms: _569  and  _571
REMARK  244  A    between atoms: _571  and  _572
REMARK  245  A    between atoms: _571  and  _574
REMARK  246  A    between atoms: _574  and  _575
REMARK  247  A    between atoms: _575  and  _576
REMARK  248  A    between atoms: _581  and  _583
REMARK  249  A    between atoms: _583  and  _584
REMARK  250  A    between atoms: _583  and  _586
REMARK  251  A    between atoms: _586  and  _587
REMARK  252  A    between atoms: _590  and  _592
REMARK  253  A    between atoms: _592  and  _593
REMARK  254  A    between atoms: _592  and  _595
REMARK  255  A    between atoms: _595  and  _596
REMARK  256  A    between atoms: _601  and  _603
REMARK  257  A    between atoms: _603  and  _604
REMARK  258  A    between atoms: _607  and  _609
REMARK  259  A    between atoms: _609  and  _610
REMARK  260  A    between atoms: _609  and  _612
REMARK  261  A    between atoms: _612  and  _613
REMARK  262  A    between atoms: _616  and  _618
REMARK  263  A    between atoms: _618  and  _619
REMARK  264  A    between atoms: _618  and  _621
REMARK  265  A    between atoms: _624  and  _626
REMARK  266  A    between atoms: _626  and  _627
REMARK  267  A    between atoms: _626  and  _629
REMARK  268  A    between atoms: _629  and  _630
REMARK  269  A    between atoms: _630  and  _631
REMARK  270  A    between atoms: _631  and  _632
REMARK  271  A    between atoms: _641  and  _643
REMARK  272  A    between atoms: _643  and  _644
REMARK  273  A    between atoms: _643  and  _646
REMARK  274  A    between atoms: _646  and  _647
REMARK  275  A    between atoms: _650  and  _652
REMARK  276  A    between atoms: _652  and  _653
REMARK  277  A    between atoms: _652  and  _655
REMARK  278  A    between atoms: _655  and  _656
REMARK  279  A    between atoms: _659  and  _661
REMARK  280  A    between atoms: _661  and  _662
REMARK  281  A    between atoms: _661  and  _664
REMARK  282  A    between atoms: _664  and  _665
REMARK  283  A    between atoms: _665  and  _666
REMARK  284  A    between atoms: _666  and  _667
REMARK  285  A    between atoms: _676  and  _678
REMARK  286  A    between atoms: _678  and  _679
REMARK  287  A    between atoms: _678  and  _681
REMARK  288  A    between atoms: _681  and  _682
REMARK  289  A    between atoms: _682  and  _683
REMARK  290  A    between atoms: _688  and  _690
REMARK  291  A    between atoms: _690  and  _691
REMARK  292  A    between atoms: _690  and  _693
REMARK  293  A    between atoms: _696  and  _698
REMARK  294  A    between atoms: _698  and  _699
REMARK  295  A    between atoms: _698  and  _701
REMARK  296  A    between atoms: _701  and  _702
REMARK                            x       y       z     vdW  Elec       q    Type
REMARK                         _______ _______ _______ _____ _____    ______ ____
ROOT
ATOM      1  O   HOH     1      13.136   5.748  -2.750  0.00  0.00    +0.000 OA
ENDROOT
TORSDOF 0
REMARK  Name = ../refined-set-2016/3v2p/3v2p_pocket.pdb
REMARK  296 active torsions:
REMARK  status: ('A' for Active; 'I' for Inactive)
REMARK    1  A    between atoms: _1  and  _3
REMARK    2  A    between atoms: _3  and  _4
REMARK    3  A    between atoms: _3  and  _6
REMARK    4  A    between atoms: _6  and  _7
REMARK    5  A    between atoms: _7  and  _8
REMARK    6  A    between atoms: _10  and  _12
REMARK    7  A    between atoms: _12  and  _13
REMARK    8  A    between atoms: _12  and  _15
REMARK    9  A    between atoms: _15  and  _16
REMARK   10  A    between atoms: _16  and  _17
REMARK   11  A    between atoms: _20  and  _22
REMARK   12  A    between atoms: _22  and  _23
REMARK   13  A    between atoms: _22  and  _25
REMARK   14  A    between atoms: _25  and  _26
REMARK   15  A    between atoms: _29  and  _31
REMARK   16  A    between atoms: _31  and  _32
REMARK   17  A    between atoms: _31  and  _34
REMARK   18  A    between atoms: _34  and  _35
REMARK   19  A    between atoms: _38  and  _40
REMARK   20  A    between atoms: _40  and  _41
REMARK   21  A    between atoms: _40  and  _43
REMARK   22  A    between atoms: _43  and  _44
REMARK   23  A    between atoms: _49  and  _51
REMARK   24  A    between atoms: _51  and  _52
REMARK   25  A    between atoms: _55  and  _57
REMARK   26  A    between atoms: _57  and  _58
REMARK   27  A    between atoms: _57  and  _60
REMARK   28  A    between atoms: _60  and  _61
REMARK   29  A    between atoms: _64  and  _66
REMARK   30  A    between atoms: _66  and  _67
REMARK   31  A    between atoms: _66  and  _69
REMARK   32  A    between atoms: _72  and  _74
REMARK   33  A    between atoms: _74  and  _75
REMARK   34  A    between atoms: _74  and  _77
REMARK   35  A    between atoms: _77  and  _78
REMARK   36  A    between atoms: _78  and  _79
REMARK   37  A    between atoms: _79  and  _80
REMARK   38  A    between atoms: _89  and  _91
REMARK   39  A    between atoms: _91  and  _92
REMARK   40  A    between atoms: _91  and  _94
REMARK   41  A    between atoms: _94  and  _95
REMARK   42  A    between atoms: _98  and  _100
REMARK   43  A    between atoms: _100  and  _101
REMARK   44  A    between atoms: _100  and  _103
REMARK   45  A    between atoms: _103  and  _104
REMARK   46  A    between atoms: _107  and  _109
REMARK   47  A    between atoms: _109  and  _110
REMARK   48  A    between atoms: _109  and  _112
REMARK   49  A    between atoms: _112  and  _113
REMARK   50  A    between atoms: _113  and  _114
REMARK   51  A    between atoms: _119  and  _121
REMARK   52  A    between atoms: _121  and  _122
REMARK   53  A    between atoms: _121  and  _124
REMARK   54  A    between atoms: _127  and  _129
REMARK   55  A    between atoms: _129  and  _130
REMARK   56  A    between atoms: _129  and  _132
REMARK   57  A    between atoms: _132  and  _133
REMARK   58  A    between atoms: _136  and  _138
REMARK   59  A    between atoms: _138  and  _139
REMARK   60  A    between atoms: _138  and  _141
REMARK   61  A    between atoms: _141  and  _142
REMARK   62  A    between atoms: _142  and  _143
REMARK   63  A    between atoms: _145  and  _147
REMARK   64  A    between atoms: _147  and  _148
REMARK   65  A    between atoms: _147  and  _150
REMARK   66  A    between atoms: _150  and  _151
REMARK   67  A    between atoms: _151  and  _152
REMARK   68  A    between atoms: _155  and  _157
REMARK   69  A    between atoms: _157  and  _158
REMARK   70  A    between atoms: _157  and  _160
REMARK   71  A    between atoms: _160  and  _161
REMARK   72  A    between atoms: _164  and  _166
REMARK   73  A    between atoms: _166  and  _167
REMARK   74  A    between atoms: _166  and  _169
REMARK   75  A    between atoms: _169  and  _170
REMARK   76  A    between atoms: _173  and  _175
REMARK   77  A    between atoms: _175  and  _176
REMARK   78  A    between atoms: _175  and  _178
REMARK   79  A    between atoms: _178  and  _179
REMARK   80  A    between atoms: _184  and  _186
REMARK   81  A    between atoms: _186  and  _187
REMARK   82  A    between atoms: _190  and  _192
REMARK   83  A    between atoms: _192  and  _193
REMARK   84  A    between atoms: _192  and  _195
REMARK   85  A    between atoms: _195  and  _196
REMARK   86  A    between atoms: _199  and  _201
REMARK   87  A    between atoms: _201  and  _202
REMARK   88  A    between atoms: _201  and  _204
REMARK   89  A    between atoms: _207  and  _209
REMARK   90  A    between atoms: _209  and  _210
REMARK   91  A    between atoms: _209  and  _212
REMARK   92  A    between atoms: _212  and  _213
REMARK   93  A    between atoms: _213  and  _214
REMARK   94  A    between atoms: _214  and  _215
REMARK   95  A    between atoms: _224  and  _226
REMARK   96  A    between atoms: _226  and  _227
REMARK   97  A    between atoms: _226  and  _229
REMARK   98  A    between atoms: _229  and  _230
REMARK   99  A    between atoms: _233  and  _235
REMARK  100  A    between atoms: _235  and  _236
REMARK  101  A    between atoms: _235  and  _238
REMARK  102  A    between atoms: _238  and  _239
REMARK  103  A    between atoms: _242  and  _244
REMARK  104  A    between atoms: _244  and  _245
REMARK  105  A    between atoms: _244  and  _247
REMARK  106  A    between atoms: _247  and  _248
REMARK  107  A    between atoms: _248  and  _249
REMARK  108  A    between atoms: _254  and  _256
REMARK  109  A    between atoms: _256  and  _257
REMARK  110  A    between atoms: _256  and  _259
REMARK  111  A    between atoms: _262  and  _264
REMARK  112  A    between atoms: _264  and  _265
REMARK  113  A    between atoms: _264  and  _267
REMARK  114  A    between atoms: _267  and  _268
REMARK  115  A    between atoms: _271  and  _273
REMARK  116  A    between atoms: _273  and  _274
REMARK  117  A    between atoms: _273  and  _276
REMARK  118  A    between atoms: _276  and  _277
REMARK  119  A    between atoms: _277  and  _278
REMARK  120  A    between atoms: _280  and  _282
REMARK  121  A    between atoms: _282  and  _283
REMARK  122  A    between atoms: _282  and  _285
REMARK  123  A    between atoms: _285  and  _286
REMARK  124  A    between atoms: _286  and  _287
REMARK  125  A    between atoms: _290  and  _292
REMARK  126  A    between atoms: _292  and  _293
REMARK  127  A    between atoms: _292  and  _295
REMARK  128  A    between atoms: _295  and  _296
REMARK  129  A    between atoms: _299  and  _301
REMARK  130  A    between atoms: _301  and  _302
REMARK  131  A    between atoms: _301  and  _304
REMARK  132  A    between atoms: _304  and  _305
REMARK  133  A    between atoms: _308  and  _310
REMARK  134  A    between atoms: _310  and  _311
REMARK  135  A    between atoms: _310  and  _313
REMARK  136  A    between atoms: _313  and  _314
REMARK  137  A    between atoms: _319  and  _321
REMARK  138  A    between atoms: _321  and  _322
REMARK  139  A    between atoms: _325  and  _327
REMARK  140  A    between atoms: _327  and  _328
REMARK  141  A    between atoms: _327  and  _330
REMARK  142  A    between atoms: _330  and  _331
REMARK  143  A    between atoms: _334  and  _336
REMARK  144  A    between atoms: _336  and  _337
REMARK  145  A    between atoms: _336  and  _339
REMARK  146  A    between atoms: _342  and  _344
REMARK  147  A    between atoms: _344  and  _345
REMARK  148  A    between atoms: _344  and  _347
REMARK  149  A    between atoms: _347  and  _348
REMARK  150  A    between atoms: _348  and  _349
REMARK  151  A    between atoms: _349  and  _350
REMARK  152  A    between atoms: _359  and  _361
REMARK  153  A    between atoms: _361  and  _362
REMARK  154  A    between atoms: _361  and  _364
REMARK  155  A    between atoms: _364  and  _365
REMARK  156  A    between atoms: _368  and  _370
REMARK  157  A    between atoms: _370  and  _371
REMARK  158  A    between atoms: _370  and  _373
REMARK  159  A    between atoms: _373  and  _374
REMARK  160  A    between atoms: _377  and  _379
REMARK  161  A    between atoms: _379  and  _380
REMARK  162  A    between atoms: _379  and  _382
REMARK  163  A    between atoms: _382  and  _383
REMARK  164  A    between atoms: _383  and  _384
REMARK  165  A    between atoms: _389  and  _391
REMARK  166  A    between atoms: _391  and  _392
REMARK  167  A    between atoms: _391  and  _394
REMARK  168  A    between atoms: _397  and  _399
REMARK  169  A    between atoms: _399  and  _400
REMARK  170  A    between atoms: _399  and  _402
REMARK  171  A    between atoms: _402  and  _403
REMARK  172  A    between atoms: _406  and  _408
REMARK  173  A    between atoms: _408  and  _409
REMARK  174  A    between atoms: _408  and  _411
REMARK  175  A    between atoms: _411  and  _412
REMARK  176  A    between atoms: _412  and  _413
REMARK  177  A    between atoms: _415  and  _417
REMARK  178  A    between atoms: _417  and  _418
REMARK  179  A    between atoms: _417  and  _420
REMARK  180  A    between atoms: _420  and  _421
REMARK  181  A    between atoms: _421  and  _422
REMARK  182  A    between atoms: _425  and  _427
REMARK  183  A    between atoms: _427  and  _428
REMARK  184  A    between atoms: _427  and  _430
REMARK  185  A    between atoms: _430  and  _431
REMARK  186  A    between atoms: _434  and  _436
REMARK  187  A    between atoms: _436  and  _437
REMARK  188  A    between atoms: _436  and  _439
REMARK  189  A    between atoms: _439  and  _440
REMARK  190  A    between atoms: _443  and  _445
REMARK  191  A    between atoms: _445  and  _446
REMARK  192  A    between atoms: _445  and  _448
REMARK  193  A    between atoms: _448  and  _449
REMARK  194  A    between atoms: _454  and  _456
REMARK  195  A    between atoms: _456  and  _457
REMARK  196  A    between atoms: _460  and  _462
REMARK  197  A    between atoms: _462  and  _463
REMARK  198  A    between atoms: _462  and  _465
REMARK  199  A    between atoms: _465  and  _466
REMARK  200  A    between atoms: _469  and  _471
REMARK  201  A    between atoms: _471  and  _472
REMARK  202  A    between atoms: _471  and  _474
REMARK  203  A    between atoms: _477  and  _479
REMARK  204  A    between atoms: _479  and  _480
REMARK  205  A    between atoms: _479  and  _482
REMARK  206  A    between atoms: _482  and  _483
REMARK  207  A    between atoms: _483  and  _484
REMARK  208  A    between atoms: _484  and  _485
REMARK  209  A    between atoms: _494  and  _496
REMARK  210  A    between atoms: _496  and  _497
REMARK  211  A    between atoms: _496  and  _499
REMARK  212  A    between atoms: _499  and  _500
REMARK  213  A    between atoms: _503  and  _505
REMARK  214  A    between atoms: _505  and  _506
REMARK  215  A    between atoms: _505  and  _508
REMARK  216  A    between atoms: _508  and  _509
REMARK  217  A    between atoms: _512  and  _514
REMARK  218  A    between atoms: _514  and  _515
REMARK  219  A    between atoms: _514  and  _517
REMARK  220  A    between atoms: _517  and  _518
REMARK  221  A    between atoms: _518  and  _519
REMARK  222  A    between atoms: _524  and  _526
REMARK  223  A    between atoms: _526  and  _527
REMARK  224  A    between atoms: _526  and  _529
REMARK  225  A    between atoms: _532  and  _534
REMARK  226  A    between atoms: _534  and  _535
REMARK  227  A    between atoms: _534  and  _537
REMARK  228  A    between atoms: _537  and  _538
REMARK  229  A    between atoms: _541  and  _543
REMARK  230  A    between atoms: _543  and  _544
REMARK  231  A    between atoms: _543  and  _546
REMARK  232  A    between atoms: _546  and  _547
REMARK  233  A    between atoms: _547  and  _548
REMARK  234  A    between atoms: _550  and  _552
REMARK  235  A    between atoms: _552  and  _553
REMARK  236  A    between atoms: _552  and  _555
REMARK  237  A    between atoms: _555  and  _556
REMARK  238  A    between atoms: _556  and  _557
REMARK  239  A    between atoms: _560  and  _562
REMARK  240  A    between atoms: _562  and  _563
REMARK  241  A    between atoms: _562  and  _565
REMARK  242  A    between atoms: _565  and  _566
REMARK  243  A    between atoms: _569  and  _571
REMARK  244  A    between atoms: _571  and  _572
REMARK  245  A    between atoms: _571  and  _574
REMARK  246  A    between atoms: _574  and  _575
REMARK  247  A    between atoms: _575  and  _576
REMARK  248  A    between atoms: _581  and  _583
REMARK  249  A    between atoms: _583  and  _584
REMARK  250  A    between atoms: _583  and  _586
REMARK  251  A    between atoms: _586  and  _587
REMARK  252  A    between atoms: _590  and  _592
REMARK  253  A    between atoms: _592  and  _593
REMARK  254  A    between atoms: _592  and  _595
REMARK  255  A    between atoms: _595  and  _596
REMARK  256  A    between atoms: _601  and  _603
REMARK  257  A    between atoms: _603  and  _604
REMARK  258  A    between atoms: _607  and  _609
REMARK  259  A    between atoms: _609  and  _610
REMARK  260  A    between atoms: _609  and  _612
REMARK  261  A    between atoms: _612  and  _613
REMARK  262  A    between atoms: _616  and  _618
REMARK  263  A    between atoms: _618  and  _619
REMARK  264  A    between atoms: _618  and  _621
REMARK  265  A    between atoms: _624  and  _626
REMARK  266  A    between atoms: _626  and  _627
REMARK  267  A    between atoms: _626  and  _629
REMARK  268  A    between atoms: _629  and  _630
REMARK  269  A    between atoms: _630  and  _631
REMARK  270  A    between atoms: _631  and  _632
REMARK  271  A    between atoms: _641  and  _643
REMARK  272  A    between atoms: _643  and  _644
REMARK  273  A    between atoms: _643  and  _646
REMARK  274  A    between atoms: _646  and  _647
REMARK  275  A    between atoms: _650  and  _652
REMARK  276  A    between atoms: _652  and  _653
REMARK  277  A    between atoms: _652  and  _655
REMARK  278  A    between atoms: _655  and  _656
REMARK  279  A    between atoms: _659  and  _661
REMARK  280  A    between atoms: _661  and  _662
REMARK  281  A    between atoms: _661  and  _664
REMARK  282  A    between atoms: _664  and  _665
REMARK  283  A    between atoms: _665  and  _666
REMARK  284  A    between atoms: _666  and  _667
REMARK  285  A    between atoms: _676  and  _678
REMARK  286  A    between atoms: _678  and  _679
REMARK  287  A    between atoms: _678  and  _681
REMARK  288  A    between atoms: _681  and  _682
REMARK  289  A    between atoms: _682  and  _683
REMARK  290  A    between atoms: _688  and  _690
REMARK  291  A    between atoms: _690  and  _691
REMARK  292  A    between atoms: _690  and  _693
REMARK  293  A    between atoms: _696  and  _698
REMARK  294  A    between atoms: _698  and  _699
REMARK  295  A    between atoms: _698  and  _701
REMARK  296  A    between atoms: _701  and  _702
REMARK                            x       y       z     vdW  Elec       q    Type
REMARK                         _______ _______ _______ _____ _____    ______ ____
ROOT
ATOM      1  O   HOH     1      16.864   1.979   0.022  0.00  0.00    +0.000 OA
ENDROOT
TORSDOF 0
REMARK  Name = ../refined-set-2016/3v2p/3v2p_pocket.pdb
REMARK  296 active torsions:
REMARK  status: ('A' for Active; 'I' for Inactive)
REMARK    1  A    between atoms: _1  and  _3
REMARK    2  A    between atoms: _3  and  _4
REMARK    3  A    between atoms: _3  and  _6
REMARK    4  A    between atoms: _6  and  _7
REMARK    5  A    between atoms: _7  and  _8
REMARK    6  A    between atoms: _10  and  _12
REMARK    7  A    between atoms: _12  and  _13
REMARK    8  A    between atoms: _12  and  _15
REMARK    9  A    between atoms: _15  and  _16
REMARK   10  A    between atoms: _16  and  _17
REMARK   11  A    between atoms: _20  and  _22
REMARK   12  A    between atoms: _22  and  _23
REMARK   13  A    between atoms: _22  and  _25
REMARK   14  A    between atoms: _25  and  _26
REMARK   15  A    between atoms: _29  and  _31
REMARK   16  A    between atoms: _31  and  _32
REMARK   17  A    between atoms: _31  and  _34
REMARK   18  A    between atoms: _34  and  _35
REMARK   19  A    between atoms: _38  and  _40
REMARK   20  A    between atoms: _40  and  _41
REMARK   21  A    between atoms: _40  and  _43
REMARK   22  A    between atoms: _43  and  _44
REMARK   23  A    between atoms: _49  and  _51
REMARK   24  A    between atoms: _51  and  _52
REMARK   25  A    between atoms: _55  and  _57
REMARK   26  A    between atoms: _57  and  _58
REMARK   27  A    between atoms: _57  and  _60
REMARK   28  A    between atoms: _60  and  _61
REMARK   29  A    between atoms: _64  and  _66
REMARK   30  A    between atoms: _66  and  _67
REMARK   31  A    between atoms: _66  and  _69
REMARK   32  A    between atoms: _72  and  _74
REMARK   33  A    between atoms: _74  and  _75
REMARK   34  A    between atoms: _74  and  _77
REMARK   35  A    between atoms: _77  and  _78
REMARK   36  A    between atoms: _78  and  _79
REMARK   37  A    between atoms: _79  and  _80
REMARK   38  A    between atoms: _89  and  _91
REMARK   39  A    between atoms: _91  and  _92
REMARK   40  A    between atoms: _91  and  _94
REMARK   41  A    between atoms: _94  and  _95
REMARK   42  A    between atoms: _98  and  _100
REMARK   43  A    between atoms: _100  and  _101
REMARK   44  A    between atoms: _100  and  _103
REMARK   45  A    between atoms: _103  and  _104
REMARK   46  A    between atoms: _107  and  _109
REMARK   47  A    between atoms: _109  and  _110
REMARK   48  A    between atoms: _109  and  _112
REMARK   49  A    between atoms: _112  and  _113
REMARK   50  A    between atoms: _113  and  _114
REMARK   51  A    between atoms: _119  and  _121
REMARK   52  A    between atoms: _121  and  _122
REMARK   53  A    between atoms: _121  and  _124
REMARK   54  A    between atoms: _127  and  _129
REMARK   55  A    between atoms: _129  and  _130
REMARK   56  A    between atoms: _129  and  _132
REMARK   57  A    between atoms: _132  and  _133
REMARK   58  A    between atoms: _136  and  _138
REMARK   59  A    between atoms: _138  and  _139
REMARK   60  A    between atoms: _138  and  _141
REMARK   61  A    between atoms: _141  and  _142
REMARK   62  A    between atoms: _142  and  _143
REMARK   63  A    between atoms: _145  and  _147
REMARK   64  A    between atoms: _147  and  _148
REMARK   65  A    between atoms: _147  and  _150
REMARK   66  A    between atoms: _150  and  _151
REMARK   67  A    between atoms: _151  and  _152
REMARK   68  A    between atoms: _155  and  _157
REMARK   69  A    between atoms: _157  and  _158
REMARK   70  A    between atoms: _157  and  _160
REMARK   71  A    between atoms: _160  and  _161
REMARK   72  A    between atoms: _164  and  _166
REMARK   73  A    between atoms: _166  and  _167
REMARK   74  A    between atoms: _166  and  _169
REMARK   75  A    between atoms: _169  and  _170
REMARK   76  A    between atoms: _173  and  _175
REMARK   77  A    between atoms: _175  and  _176
REMARK   78  A    between atoms: _175  and  _178
REMARK   79  A    between atoms: _178  and  _179
REMARK   80  A    between atoms: _184  and  _186
REMARK   81  A    between atoms: _186  and  _187
REMARK   82  A    between atoms: _190  and  _192
REMARK   83  A    between atoms: _192  and  _193
REMARK   84  A    between atoms: _192  and  _195
REMARK   85  A    between atoms: _195  and  _196
REMARK   86  A    between atoms: _199  and  _201
REMARK   87  A    between atoms: _201  and  _202
REMARK   88  A    between atoms: _201  and  _204
REMARK   89  A    between atoms: _207  and  _209
REMARK   90  A    between atoms: _209  and  _210
REMARK   91  A    between atoms: _209  and  _212
REMARK   92  A    between atoms: _212  and  _213
REMARK   93  A    between atoms: _213  and  _214
REMARK   94  A    between atoms: _214  and  _215
REMARK   95  A    between atoms: _224  and  _226
REMARK   96  A    between atoms: _226  and  _227
REMARK   97  A    between atoms: _226  and  _229
REMARK   98  A    between atoms: _229  and  _230
REMARK   99  A    between atoms: _233  and  _235
REMARK  100  A    between atoms: _235  and  _236
REMARK  101  A    between atoms: _235  and  _238
REMARK  102  A    between atoms: _238  and  _239
REMARK  103  A    between atoms: _242  and  _244
REMARK  104  A    between atoms: _244  and  _245
REMARK  105  A    between atoms: _244  and  _247
REMARK  106  A    between atoms: _247  and  _248
REMARK  107  A    between atoms: _248  and  _249
REMARK  108  A    between atoms: _254  and  _256
REMARK  109  A    between atoms: _256  and  _257
REMARK  110  A    between atoms: _256  and  _259
REMARK  111  A    between atoms: _262  and  _264
REMARK  112  A    between atoms: _264  and  _265
REMARK  113  A    between atoms: _264  and  _267
REMARK  114  A    between atoms: _267  and  _268
REMARK  115  A    between atoms: _271  and  _273
REMARK  116  A    between atoms: _273  and  _274
REMARK  117  A    between atoms: _273  and  _276
REMARK  118  A    between atoms: _276  and  _277
REMARK  119  A    between atoms: _277  and  _278
REMARK  120  A    between atoms: _280  and  _282
REMARK  121  A    between atoms: _282  and  _283
REMARK  122  A    between atoms: _282  and  _285
REMARK  123  A    between atoms: _285  and  _286
REMARK  124  A    between atoms: _286  and  _287
REMARK  125  A    between atoms: _290  and  _292
REMARK  126  A    between atoms: _292  and  _293
REMARK  127  A    between atoms: _292  and  _295
REMARK  128  A    between atoms: _295  and  _296
REMARK  129  A    between atoms: _299  and  _301
REMARK  130  A    between atoms: _301  and  _302
REMARK  131  A    between atoms: _301  and  _304
REMARK  132  A    between atoms: _304  and  _305
REMARK  133  A    between atoms: _308  and  _310
REMARK  134  A    between atoms: _310  and  _311
REMARK  135  A    between atoms: _310  and  _313
REMARK  136  A    between atoms: _313  and  _314
REMARK  137  A    between atoms: _319  and  _321
REMARK  138  A    between atoms: _321  and  _322
REMARK  139  A    between atoms: _325  and  _327
REMARK  140  A    between atoms: _327  and  _328
REMARK  141  A    between atoms: _327  and  _330
REMARK  142  A    between atoms: _330  and  _331
REMARK  143  A    between atoms: _334  and  _336
REMARK  144  A    between atoms: _336  and  _337
REMARK  145  A    between atoms: _336  and  _339
REMARK  146  A    between atoms: _342  and  _344
REMARK  147  A    between atoms: _344  and  _345
REMARK  148  A    between atoms: _344  and  _347
REMARK  149  A    between atoms: _347  and  _348
REMARK  150  A    between atoms: _348  and  _349
REMARK  151  A    between atoms: _349  and  _350
REMARK  152  A    between atoms: _359  and  _361
REMARK  153  A    between atoms: _361  and  _362
REMARK  154  A    between atoms: _361  and  _364
REMARK  155  A    between atoms: _364  and  _365
REMARK  156  A    between atoms: _368  and  _370
REMARK  157  A    between atoms: _370  and  _371
REMARK  158  A    between atoms: _370  and  _373
REMARK  159  A    between atoms: _373  and  _374
REMARK  160  A    between atoms: _377  and  _379
REMARK  161  A    between atoms: _379  and  _380
REMARK  162  A    between atoms: _379  and  _382
REMARK  163  A    between atoms: _382  and  _383
REMARK  164  A    between atoms: _383  and  _384
REMARK  165  A    between atoms: _389  and  _391
REMARK  166  A    between atoms: _391  and  _392
REMARK  167  A    between atoms: _391  and  _394
REMARK  168  A    between atoms: _397  and  _399
REMARK  169  A    between atoms: _399  and  _400
REMARK  170  A    between atoms: _399  and  _402
REMARK  171  A    between atoms: _402  and  _403
REMARK  172  A    between atoms: _406  and  _408
REMARK  173  A    between atoms: _408  and  _409
REMARK  174  A    between atoms: _408  and  _411
REMARK  175  A    between atoms: _411  and  _412
REMARK  176  A    between atoms: _412  and  _413
REMARK  177  A    between atoms: _415  and  _417
REMARK  178  A    between atoms: _417  and  _418
REMARK  179  A    between atoms: _417  and  _420
REMARK  180  A    between atoms: _420  and  _421
REMARK  181  A    between atoms: _421  and  _422
REMARK  182  A    between atoms: _425  and  _427
REMARK  183  A    between atoms: _427  and  _428
REMARK  184  A    between atoms: _427  and  _430
REMARK  185  A    between atoms: _430  and  _431
REMARK  186  A    between atoms: _434  and  _436
REMARK  187  A    between atoms: _436  and  _437
REMARK  188  A    between atoms: _436  and  _439
REMARK  189  A    between atoms: _439  and  _440
REMARK  190  A    between atoms: _443  and  _445
REMARK  191  A    between atoms: _445  and  _446
REMARK  192  A    between atoms: _445  and  _448
REMARK  193  A    between atoms: _448  and  _449
REMARK  194  A    between atoms: _454  and  _456
REMARK  195  A    between atoms: _456  and  _457
REMARK  196  A    between atoms: _460  and  _462
REMARK  197  A    between atoms: _462  and  _463
REMARK  198  A    between atoms: _462  and  _465
REMARK  199  A    between atoms: _465  and  _466
REMARK  200  A    between atoms: _469  and  _471
REMARK  201  A    between atoms: _471  and  _472
REMARK  202  A    between atoms: _471  and  _474
REMARK  203  A    between atoms: _477  and  _479
REMARK  204  A    between atoms: _479  and  _480
REMARK  205  A    between atoms: _479  and  _482
REMARK  206  A    between atoms: _482  and  _483
REMARK  207  A    between atoms: _483  and  _484
REMARK  208  A    between atoms: _484  and  _485
REMARK  209  A    between atoms: _494  and  _496
REMARK  210  A    between atoms: _496  and  _497
REMARK  211  A    between atoms: _496  and  _499
REMARK  212  A    between atoms: _499  and  _500
REMARK  213  A    between atoms: _503  and  _505
REMARK  214  A    between atoms: _505  and  _506
REMARK  215  A    between atoms: _505  and  _508
REMARK  216  A    between atoms: _508  and  _509
REMARK  217  A    between atoms: _512  and  _514
REMARK  218  A    between atoms: _514  and  _515
REMARK  219  A    between atoms: _514  and  _517
REMARK  220  A    between atoms: _517  and  _518
REMARK  221  A    between atoms: _518  and  _519
REMARK  222  A    between atoms: _524  and  _526
REMARK  223  A    between atoms: _526  and  _527
REMARK  224  A    between atoms: _526  and  _529
REMARK  225  A    between atoms: _532  and  _534
REMARK  226  A    between atoms: _534  and  _535
REMARK  227  A    between atoms: _534  and  _537
REMARK  228  A    between atoms: _537  and  _538
REMARK  229  A    between atoms: _541  and  _543
REMARK  230  A    between atoms: _543  and  _544
REMARK  231  A    between atoms: _543  and  _546
REMARK  232  A    between atoms: _546  and  _547
REMARK  233  A    between atoms: _547  and  _548
REMARK  234  A    between atoms: _550  and  _552
REMARK  235  A    between atoms: _552  and  _553
REMARK  236  A    between atoms: _552  and  _555
REMARK  237  A    between atoms: _555  and  _556
REMARK  238  A    between atoms: _556  and  _557
REMARK  239  A    between atoms: _560  and  _562
REMARK  240  A    between atoms: _562  and  _563
REMARK  241  A    between atoms: _562  and  _565
REMARK  242  A    between atoms: _565  and  _566
REMARK  243  A    between atoms: _569  and  _571
REMARK  244  A    between atoms: _571  and  _572
REMARK  245  A    between atoms: _571  and  _574
REMARK  246  A    between atoms: _574  and  _575
REMARK  247  A    between atoms: _575  and  _576
REMARK  248  A    between atoms: _581  and  _583
REMARK  249  A    between atoms: _583  and  _584
REMARK  250  A    between atoms: _583  and  _586
REMARK  251  A    between atoms: _586  and  _587
REMARK  252  A    between atoms: _590  and  _592
REMARK  253  A    between atoms: _592  and  _593
REMARK  254  A    between atoms: _592  and  _595
REMARK  255  A    between atoms: _595  and  _596
REMARK  256  A    between atoms: _601  and  _603
REMARK  257  A    between atoms: _603  and  _604
REMARK  258  A    between atoms: _607  and  _609
REMARK  259  A    between atoms: _609  and  _610
REMARK  260  A    between atoms: _609  and  _612
REMARK  261  A    between atoms: _612  and  _613
REMARK  262  A    between atoms: _616  and  _618
REMARK  263  A    between atoms: _618  and  _619
REMARK  264  A    between atoms: _618  and  _621
REMARK  265  A    between atoms: _624  and  _626
REMARK  266  A    between atoms: _626  and  _627
REMARK  267  A    between atoms: _626  and  _629
REMARK  268  A    between atoms: _629  and  _630
REMARK  269  A    between atoms: _630  and  _631
REMARK  270  A    between atoms: _631  and  _632
REMARK  271  A    between atoms: _641  and  _643
REMARK  272  A    between atoms: _643  and  _644
REMARK  273  A    between atoms: _643  and  _646
REMARK  274  A    between atoms: _646  and  _647
REMARK  275  A    between atoms: _650  and  _652
REMARK  276  A    between atoms: _652  and  _653
REMARK  277  A    between atoms: _652  and  _655
REMARK  278  A    between atoms: _655  and  _656
REMARK  279  A    between atoms: _659  and  _661
REMARK  280  A    between atoms: _661  and  _662
REMARK  281  A    between atoms: _661  and  _664
REMARK  282  A    between atoms: _664  and  _665
REMARK  283  A    between atoms: _665  and  _666
REMARK  284  A    between atoms: _666  and  _667
REMARK  285  A    between atoms: _676  and  _678
REMARK  286  A    between atoms: _678  and  _679
REMARK  287  A    between atoms: _678  and  _681
REMARK  288  A    between atoms: _681  and  _682
REMARK  289  A    between atoms: _682  and  _683
REMARK  290  A    between atoms: _688  and  _690
REMARK  291  A    between atoms: _690  and  _691
REMARK  292  A    between atoms: _690  and  _693
REMARK  293  A    between atoms: _696  and  _698
REMARK  294  A    between atoms: _698  and  _699
REMARK  295  A    between atoms: _698  and  _701
REMARK  296  A    between atoms: _701  and  _702
REMARK                            x       y       z     vdW  Elec       q    Type
REMARK                         _______ _______ _______ _____ _____    ______ ____
ROOT
ATOM      1  O   HOH     1      15.456  -3.216  -1.493  0.00  0.00    +0.000 OA
ENDROOT
TORSDOF 0
REMARK  Name = ../refined-set-2016/3v2p/3v2p_pocket.pdb
REMARK  296 active torsions:
REMARK  status: ('A' for Active; 'I' for Inactive)
REMARK    1  A    between atoms: _1  and  _3
REMARK    2  A    between atoms: _3  and  _4
REMARK    3  A    between atoms: _3  and  _6
REMARK    4  A    between atoms: _6  and  _7
REMARK    5  A    between atoms: _7  and  _8
REMARK    6  A    between atoms: _10  and  _12
REMARK    7  A    between atoms: _12  and  _13
REMARK    8  A    between atoms: _12  and  _15
REMARK    9  A    between atoms: _15  and  _16
REMARK   10  A    between atoms: _16  and  _17
REMARK   11  A    between atoms: _20  and  _22
REMARK   12  A    between atoms: _22  and  _23
REMARK   13  A    between atoms: _22  and  _25
REMARK   14  A    between atoms: _25  and  _26
REMARK   15  A    between atoms: _29  and  _31
REMARK   16  A    between atoms: _31  and  _32
REMARK   17  A    between atoms: _31  and  _34
REMARK   18  A    between atoms: _34  and  _35
REMARK   19  A    between atoms: _38  and  _40
REMARK   20  A    between atoms: _40  and  _41
REMARK   21  A    between atoms: _40  and  _43
REMARK   22  A    between atoms: _43  and  _44
REMARK   23  A    between atoms: _49  and  _51
REMARK   24  A    between atoms: _51  and  _52
REMARK   25  A    between atoms: _55  and  _57
REMARK   26  A    between atoms: _57  and  _58
REMARK   27  A    between atoms: _57  and  _60
REMARK   28  A    between atoms: _60  and  _61
REMARK   29  A    between atoms: _64  and  _66
REMARK   30  A    between atoms: _66  and  _67
REMARK   31  A    between atoms: _66  and  _69
REMARK   32  A    between atoms: _72  and  _74
REMARK   33  A    between atoms: _74  and  _75
REMARK   34  A    between atoms: _74  and  _77
REMARK   35  A    between atoms: _77  and  _78
REMARK   36  A    between atoms: _78  and  _79
REMARK   37  A    between atoms: _79  and  _80
REMARK   38  A    between atoms: _89  and  _91
REMARK   39  A    between atoms: _91  and  _92
REMARK   40  A    between atoms: _91  and  _94
REMARK   41  A    between atoms: _94  and  _95
REMARK   42  A    between atoms: _98  and  _100
REMARK   43  A    between atoms: _100  and  _101
REMARK   44  A    between atoms: _100  and  _103
REMARK   45  A    between atoms: _103  and  _104
REMARK   46  A    between atoms: _107  and  _109
REMARK   47  A    between atoms: _109  and  _110
REMARK   48  A    between atoms: _109  and  _112
REMARK   49  A    between atoms: _112  and  _113
REMARK   50  A    between atoms: _113  and  _114
REMARK   51  A    between atoms: _119  and  _121
REMARK   52  A    between atoms: _121  and  _122
REMARK   53  A    between atoms: _121  and  _124
REMARK   54  A    between atoms: _127  and  _129
REMARK   55  A    between atoms: _129  and  _130
REMARK   56  A    between atoms: _129  and  _132
REMARK   57  A    between atoms: _132  and  _133
REMARK   58  A    between atoms: _136  and  _138
REMARK   59  A    between atoms: _138  and  _139
REMARK   60  A    between atoms: _138  and  _141
REMARK   61  A    between atoms: _141  and  _142
REMARK   62  A    between atoms: _142  and  _143
REMARK   63  A    between atoms: _145  and  _147
REMARK   64  A    between atoms: _147  and  _148
REMARK   65  A    between atoms: _147  and  _150
REMARK   66  A    between atoms: _150  and  _151
REMARK   67  A    between atoms: _151  and  _152
REMARK   68  A    between atoms: _155  and  _157
REMARK   69  A    between atoms: _157  and  _158
REMARK   70  A    between atoms: _157  and  _160
REMARK   71  A    between atoms: _160  and  _161
REMARK   72  A    between atoms: _164  and  _166
REMARK   73  A    between atoms: _166  and  _167
REMARK   74  A    between atoms: _166  and  _169
REMARK   75  A    between atoms: _169  and  _170
REMARK   76  A    between atoms: _173  and  _175
REMARK   77  A    between atoms: _175  and  _176
REMARK   78  A    between atoms: _175  and  _178
REMARK   79  A    between atoms: _178  and  _179
REMARK   80  A    between atoms: _184  and  _186
REMARK   81  A    between atoms: _186  and  _187
REMARK   82  A    between atoms: _190  and  _192
REMARK   83  A    between atoms: _192  and  _193
REMARK   84  A    between atoms: _192  and  _195
REMARK   85  A    between atoms: _195  and  _196
REMARK   86  A    between atoms: _199  and  _201
REMARK   87  A    between atoms: _201  and  _202
REMARK   88  A    between atoms: _201  and  _204
REMARK   89  A    between atoms: _207  and  _209
REMARK   90  A    between atoms: _209  and  _210
REMARK   91  A    between atoms: _209  and  _212
REMARK   92  A    between atoms: _212  and  _213
REMARK   93  A    between atoms: _213  and  _214
REMARK   94  A    between atoms: _214  and  _215
REMARK   95  A    between atoms: _224  and  _226
REMARK   96  A    between atoms: _226  and  _227
REMARK   97  A    between atoms: _226  and  _229
REMARK   98  A    between atoms: _229  and  _230
REMARK   99  A    between atoms: _233  and  _235
REMARK  100  A    between atoms: _235  and  _236
REMARK  101  A    between atoms: _235  and  _238
REMARK  102  A    between atoms: _238  and  _239
REMARK  103  A    between atoms: _242  and  _244
REMARK  104  A    between atoms: _244  and  _245
REMARK  105  A    between atoms: _244  and  _247
REMARK  106  A    between atoms: _247  and  _248
REMARK  107  A    between atoms: _248  and  _249
REMARK  108  A    between atoms: _254  and  _256
REMARK  109  A    between atoms: _256  and  _257
REMARK  110  A    between atoms: _256  and  _259
REMARK  111  A    between atoms: _262  and  _264
REMARK  112  A    between atoms: _264  and  _265
REMARK  113  A    between atoms: _264  and  _267
REMARK  114  A    between atoms: _267  and  _268
REMARK  115  A    between atoms: _271  and  _273
REMARK  116  A    between atoms: _273  and  _274
REMARK  117  A    between atoms: _273  and  _276
REMARK  118  A    between atoms: _276  and  _277
REMARK  119  A    between atoms: _277  and  _278
REMARK  120  A    between atoms: _280  and  _282
REMARK  121  A    between atoms: _282  and  _283
REMARK  122  A    between atoms: _282  and  _285
REMARK  123  A    between atoms: _285  and  _286
REMARK  124  A    between atoms: _286  and  _287
REMARK  125  A    between atoms: _290  and  _292
REMARK  126  A    between atoms: _292  and  _293
REMARK  127  A    between atoms: _292  and  _295
REMARK  128  A    between atoms: _295  and  _296
REMARK  129  A    between atoms: _299  and  _301
REMARK  130  A    between atoms: _301  and  _302
REMARK  131  A    between atoms: _301  and  _304
REMARK  132  A    between atoms: _304  and  _305
REMARK  133  A    between atoms: _308  and  _310
REMARK  134  A    between atoms: _310  and  _311
REMARK  135  A    between atoms: _310  and  _313
REMARK  136  A    between atoms: _313  and  _314
REMARK  137  A    between atoms: _319  and  _321
REMARK  138  A    between atoms: _321  and  _322
REMARK  139  A    between atoms: _325  and  _327
REMARK  140  A    between atoms: _327  and  _328
REMARK  141  A    between atoms: _327  and  _330
REMARK  142  A    between atoms: _330  and  _331
REMARK  143  A    between atoms: _334  and  _336
REMARK  144  A    between atoms: _336  and  _337
REMARK  145  A    between atoms: _336  and  _339
REMARK  146  A    between atoms: _342  and  _344
REMARK  147  A    between atoms: _344  and  _345
REMARK  148  A    between atoms: _344  and  _347
REMARK  149  A    between atoms: _347  and  _348
REMARK  150  A    between atoms: _348  and  _349
REMARK  151  A    between atoms: _349  and  _350
REMARK  152  A    between atoms: _359  and  _361
REMARK  153  A    between atoms: _361  and  _362
REMARK  154  A    between atoms: _361  and  _364
REMARK  155  A    between atoms: _364  and  _365
REMARK  156  A    between atoms: _368  and  _370
REMARK  157  A    between atoms: _370  and  _371
REMARK  158  A    between atoms: _370  and  _373
REMARK  159  A    between atoms: _373  and  _374
REMARK  160  A    between atoms: _377  and  _379
REMARK  161  A    between atoms: _379  and  _380
REMARK  162  A    between atoms: _379  and  _382
REMARK  163  A    between atoms: _382  and  _383
REMARK  164  A    between atoms: _383  and  _384
REMARK  165  A    between atoms: _389  and  _391
REMARK  166  A    between atoms: _391  and  _392
REMARK  167  A    between atoms: _391  and  _394
REMARK  168  A    between atoms: _397  and  _399
REMARK  169  A    between atoms: _399  and  _400
REMARK  170  A    between atoms: _399  and  _402
REMARK  171  A    between atoms: _402  and  _403
REMARK  172  A    between atoms: _406  and  _408
REMARK  173  A    between atoms: _408  and  _409
REMARK  174  A    between atoms: _408  and  _411
REMARK  175  A    between atoms: _411  and  _412
REMARK  176  A    between atoms: _412  and  _413
REMARK  177  A    between atoms: _415  and  _417
REMARK  178  A    between atoms: _417  and  _418
REMARK  179  A    between atoms: _417  and  _420
REMARK  180  A    between atoms: _420  and  _421
REMARK  181  A    between atoms: _421  and  _422
REMARK  182  A    between atoms: _425  and  _427
REMARK  183  A    between atoms: _427  and  _428
REMARK  184  A    between atoms: _427  and  _430
REMARK  185  A    between atoms: _430  and  _431
REMARK  186  A    between atoms: _434  and  _436
REMARK  187  A    between atoms: _436  and  _437
REMARK  188  A    between atoms: _436  and  _439
REMARK  189  A    between atoms: _439  and  _440
REMARK  190  A    between atoms: _443  and  _445
REMARK  191  A    between atoms: _445  and  _446
REMARK  192  A    between atoms: _445  and  _448
REMARK  193  A    between atoms: _448  and  _449
REMARK  194  A    between atoms: _454  and  _456
REMARK  195  A    between atoms: _456  and  _457
REMARK  196  A    between atoms: _460  and  _462
REMARK  197  A    between atoms: _462  and  _463
REMARK  198  A    between atoms: _462  and  _465
REMARK  199  A    between atoms: _465  and  _466
REMARK  200  A    between atoms: _469  and  _471
REMARK  201  A    between atoms: _471  and  _472
REMARK  202  A    between atoms: _471  and  _474
REMARK  203  A    between atoms: _477  and  _479
REMARK  204  A    between atoms: _479  and  _480
REMARK  205  A    between atoms: _479  and  _482
REMARK  206  A    between atoms: _482  and  _483
REMARK  207  A    between atoms: _483  and  _484
REMARK  208  A    between atoms: _484  and  _485
REMARK  209  A    between atoms: _494  and  _496
REMARK  210  A    between atoms: _496  and  _497
REMARK  211  A    between atoms: _496  and  _499
REMARK  212  A    between atoms: _499  and  _500
REMARK  213  A    between atoms: _503  and  _505
REMARK  214  A    between atoms: _505  and  _506
REMARK  215  A    between atoms: _505  and  _508
REMARK  216  A    between atoms: _508  and  _509
REMARK  217  A    between atoms: _512  and  _514
REMARK  218  A    between atoms: _514  and  _515
REMARK  219  A    between atoms: _514  and  _517
REMARK  220  A    between atoms: _517  and  _518
REMARK  221  A    between atoms: _518  and  _519
REMARK  222  A    between atoms: _524  and  _526
REMARK  223  A    between atoms: _526  and  _527
REMARK  224  A    between atoms: _526  and  _529
REMARK  225  A    between atoms: _532  and  _534
REMARK  226  A    between atoms: _534  and  _535
REMARK  227  A    between atoms: _534  and  _537
REMARK  228  A    between atoms: _537  and  _538
REMARK  229  A    between atoms: _541  and  _543
REMARK  230  A    between atoms: _543  and  _544
REMARK  231  A    between atoms: _543  and  _546
REMARK  232  A    between atoms: _546  and  _547
REMARK  233  A    between atoms: _547  and  _548
REMARK  234  A    between atoms: _550  and  _552
REMARK  235  A    between atoms: _552  and  _553
REMARK  236  A    between atoms: _552  and  _555
REMARK  237  A    between atoms: _555  and  _556
REMARK  238  A    between atoms: _556  and  _557
REMARK  239  A    between atoms: _560  and  _562
REMARK  240  A    between atoms: _562  and  _563
REMARK  241  A    between atoms: _562  and  _565
REMARK  242  A    between atoms: _565  and  _566
REMARK  243  A    between atoms: _569  and  _571
REMARK  244  A    between atoms: _571  and  _572
REMARK  245  A    between atoms: _571  and  _574
REMARK  246  A    between atoms: _574  and  _575
REMARK  247  A    between atoms: _575  and  _576
REMARK  248  A    between atoms: _581  and  _583
REMARK  249  A    between atoms: _583  and  _584
REMARK  250  A    between atoms: _583  and  _586
REMARK  251  A    between atoms: _586  and  _587
REMARK  252  A    between atoms: _590  and  _592
REMARK  253  A    between atoms: _592  and  _593
REMARK  254  A    between atoms: _592  and  _595
REMARK  255  A    between atoms: _595  and  _596
REMARK  256  A    between atoms: _601  and  _603
REMARK  257  A    between atoms: _603  and  _604
REMARK  258  A    between atoms: _607  and  _609
REMARK  259  A    between atoms: _609  and  _610
REMARK  260  A    between atoms: _609  and  _612
REMARK  261  A    between atoms: _612  and  _613
REMARK  262  A    between atoms: _616  and  _618
REMARK  263  A    between atoms: _618  and  _619
REMARK  264  A    between atoms: _618  and  _621
REMARK  265  A    between atoms: _624  and  _626
REMARK  266  A    between atoms: _626  and  _627
REMARK  267  A    between atoms: _626  and  _629
REMARK  268  A    between atoms: _629  and  _630
REMARK  269  A    between atoms: _630  and  _631
REMARK  270  A    between atoms: _631  and  _632
REMARK  271  A    between atoms: _641  and  _643
REMARK  272  A    between atoms: _643  and  _644
REMARK  273  A    between atoms: _643  and  _646
REMARK  274  A    between atoms: _646  and  _647
REMARK  275  A    between atoms: _650  and  _652
REMARK  276  A    between atoms: _652  and  _653
REMARK  277  A    between atoms: _652  and  _655
REMARK  278  A    between atoms: _655  and  _656
REMARK  279  A    between atoms: _659  and  _661
REMARK  280  A    between atoms: _661  and  _662
REMARK  281  A    between atoms: _661  and  _664
REMARK  282  A    between atoms: _664  and  _665
REMARK  283  A    between atoms: _665  and  _666
REMARK  284  A    between atoms: _666  and  _667
REMARK  285  A    between atoms: _676  and  _678
REMARK  286  A    between atoms: _678  and  _679
REMARK  287  A    between atoms: _678  and  _681
REMARK  288  A    between atoms: _681  and  _682
REMARK  289  A    between atoms: _682  and  _683
REMARK  290  A    between atoms: _688  and  _690
REMARK  291  A    between atoms: _690  and  _691
REMARK  292  A    between atoms: _690  and  _693
REMARK  293  A    between atoms: _696  and  _698
REMARK  294  A    between atoms: _698  and  _699
REMARK  295  A    between atoms: _698  and  _701
REMARK  296  A    between atoms: _701  and  _702
REMARK                            x       y       z     vdW  Elec       q    Type
REMARK                         _______ _______ _______ _____ _____    ______ ____
ROOT
ATOM      1  O   HOH     1      11.177  -3.084  -5.644  0.00  0.00    +0.000 OA
ENDROOT
TORSDOF 0
REMARK  Name = ../refined-set-2016/3v2p/3v2p_pocket.pdb
REMARK  296 active torsions:
REMARK  status: ('A' for Active; 'I' for Inactive)
REMARK    1  A    between atoms: _1  and  _3
REMARK    2  A    between atoms: _3  and  _4
REMARK    3  A    between atoms: _3  and  _6
REMARK    4  A    between atoms: _6  and  _7
REMARK    5  A    between atoms: _7  and  _8
REMARK    6  A    between atoms: _10  and  _12
REMARK    7  A    between atoms: _12  and  _13
REMARK    8  A    between atoms: _12  and  _15
REMARK    9  A    between atoms: _15  and  _16
REMARK   10  A    between atoms: _16  and  _17
REMARK   11  A    between atoms: _20  and  _22
REMARK   12  A    between atoms: _22  and  _23
REMARK   13  A    between atoms: _22  and  _25
REMARK   14  A    between atoms: _25  and  _26
REMARK   15  A    between atoms: _29  and  _31
REMARK   16  A    between atoms: _31  and  _32
REMARK   17  A    between atoms: _31  and  _34
REMARK   18  A    between atoms: _34  and  _35
REMARK   19  A    between atoms: _38  and  _40
REMARK   20  A    between atoms: _40  and  _41
REMARK   21  A    between atoms: _40  and  _43
REMARK   22  A    between atoms: _43  and  _44
REMARK   23  A    between atoms: _49  and  _51
REMARK   24  A    between atoms: _51  and  _52
REMARK   25  A    between atoms: _55  and  _57
REMARK   26  A    between atoms: _57  and  _58
REMARK   27  A    between atoms: _57  and  _60
REMARK   28  A    between atoms: _60  and  _61
REMARK   29  A    between atoms: _64  and  _66
REMARK   30  A    between atoms: _66  and  _67
REMARK   31  A    between atoms: _66  and  _69
REMARK   32  A    between atoms: _72  and  _74
REMARK   33  A    between atoms: _74  and  _75
REMARK   34  A    between atoms: _74  and  _77
REMARK   35  A    between atoms: _77  and  _78
REMARK   36  A    between atoms: _78  and  _79
REMARK   37  A    between atoms: _79  and  _80
REMARK   38  A    between atoms: _89  and  _91
REMARK   39  A    between atoms: _91  and  _92
REMARK   40  A    between atoms: _91  and  _94
REMARK   41  A    between atoms: _94  and  _95
REMARK   42  A    between atoms: _98  and  _100
REMARK   43  A    between atoms: _100  and  _101
REMARK   44  A    between atoms: _100  and  _103
REMARK   45  A    between atoms: _103  and  _104
REMARK   46  A    between atoms: _107  and  _109
REMARK   47  A    between atoms: _109  and  _110
REMARK   48  A    between atoms: _109  and  _112
REMARK   49  A    between atoms: _112  and  _113
REMARK   50  A    between atoms: _113  and  _114
REMARK   51  A    between atoms: _119  and  _121
REMARK   52  A    between atoms: _121  and  _122
REMARK   53  A    between atoms: _121  and  _124
REMARK   54  A    between atoms: _127  and  _129
REMARK   55  A    between atoms: _129  and  _130
REMARK   56  A    between atoms: _129  and  _132
REMARK   57  A    between atoms: _132  and  _133
REMARK   58  A    between atoms: _136  and  _138
REMARK   59  A    between atoms: _138  and  _139
REMARK   60  A    between atoms: _138  and  _141
REMARK   61  A    between atoms: _141  and  _142
REMARK   62  A    between atoms: _142  and  _143
REMARK   63  A    between atoms: _145  and  _147
REMARK   64  A    between atoms: _147  and  _148
REMARK   65  A    between atoms: _147  and  _150
REMARK   66  A    between atoms: _150  and  _151
REMARK   67  A    between atoms: _151  and  _152
REMARK   68  A    between atoms: _155  and  _157
REMARK   69  A    between atoms: _157  and  _158
REMARK   70  A    between atoms: _157  and  _160
REMARK   71  A    between atoms: _160  and  _161
REMARK   72  A    between atoms: _164  and  _166
REMARK   73  A    between atoms: _166  and  _167
REMARK   74  A    between atoms: _166  and  _169
REMARK   75  A    between atoms: _169  and  _170
REMARK   76  A    between atoms: _173  and  _175
REMARK   77  A    between atoms: _175  and  _176
REMARK   78  A    between atoms: _175  and  _178
REMARK   79  A    between atoms: _178  and  _179
REMARK   80  A    between atoms: _184  and  _186
REMARK   81  A    between atoms: _186  and  _187
REMARK   82  A    between atoms: _190  and  _192
REMARK   83  A    between atoms: _192  and  _193
REMARK   84  A    between atoms: _192  and  _195
REMARK   85  A    between atoms: _195  and  _196
REMARK   86  A    between atoms: _199  and  _201
REMARK   87  A    between atoms: _201  and  _202
REMARK   88  A    between atoms: _201  and  _204
REMARK   89  A    between atoms: _207  and  _209
REMARK   90  A    between atoms: _209  and  _210
REMARK   91  A    between atoms: _209  and  _212
REMARK   92  A    between atoms: _212  and  _213
REMARK   93  A    between atoms: _213  and  _214
REMARK   94  A    between atoms: _214  and  _215
REMARK   95  A    between atoms: _224  and  _226
REMARK   96  A    between atoms: _226  and  _227
REMARK   97  A    between atoms: _226  and  _229
REMARK   98  A    between atoms: _229  and  _230
REMARK   99  A    between atoms: _233  and  _235
REMARK  100  A    between atoms: _235  and  _236
REMARK  101  A    between atoms: _235  and  _238
REMARK  102  A    between atoms: _238  and  _239
REMARK  103  A    between atoms: _242  and  _244
REMARK  104  A    between atoms: _244  and  _245
REMARK  105  A    between atoms: _244  and  _247
REMARK  106  A    between atoms: _247  and  _248
REMARK  107  A    between atoms: _248  and  _249
REMARK  108  A    between atoms: _254  and  _256
REMARK  109  A    between atoms: _256  and  _257
REMARK  110  A    between atoms: _256  and  _259
REMARK  111  A    between atoms: _262  and  _264
REMARK  112  A    between atoms: _264  and  _265
REMARK  113  A    between atoms: _264  and  _267
REMARK  114  A    between atoms: _267  and  _268
REMARK  115  A    between atoms: _271  and  _273
REMARK  116  A    between atoms: _273  and  _274
REMARK  117  A    between atoms: _273  and  _276
REMARK  118  A    between atoms: _276  and  _277
REMARK  119  A    between atoms: _277  and  _278
REMARK  120  A    between atoms: _280  and  _282
REMARK  121  A    between atoms: _282  and  _283
REMARK  122  A    between atoms: _282  and  _285
REMARK  123  A    between atoms: _285  and  _286
REMARK  124  A    between atoms: _286  and  _287
REMARK  125  A    between atoms: _290  and  _292
REMARK  126  A    between atoms: _292  and  _293
REMARK  127  A    between atoms: _292  and  _295
REMARK  128  A    between atoms: _295  and  _296
REMARK  129  A    between atoms: _299  and  _301
REMARK  130  A    between atoms: _301  and  _302
REMARK  131  A    between atoms: _301  and  _304
REMARK  132  A    between atoms: _304  and  _305
REMARK  133  A    between atoms: _308  and  _310
REMARK  134  A    between atoms: _310  and  _311
REMARK  135  A    between atoms: _310  and  _313
REMARK  136  A    between atoms: _313  and  _314
REMARK  137  A    between atoms: _319  and  _321
REMARK  138  A    between atoms: _321  and  _322
REMARK  139  A    between atoms: _325  and  _327
REMARK  140  A    between atoms: _327  and  _328
REMARK  141  A    between atoms: _327  and  _330
REMARK  142  A    between atoms: _330  and  _331
REMARK  143  A    between atoms: _334  and  _336
REMARK  144  A    between atoms: _336  and  _337
REMARK  145  A    between atoms: _336  and  _339
REMARK  146  A    between atoms: _342  and  _344
REMARK  147  A    between atoms: _344  and  _345
REMARK  148  A    between atoms: _344  and  _347
REMARK  149  A    between atoms: _347  and  _348
REMARK  150  A    between atoms: _348  and  _349
REMARK  151  A    between atoms: _349  and  _350
REMARK  152  A    between atoms: _359  and  _361
REMARK  153  A    between atoms: _361  and  _362
REMARK  154  A    between atoms: _361  and  _364
REMARK  155  A    between atoms: _364  and  _365
REMARK  156  A    between atoms: _368  and  _370
REMARK  157  A    between atoms: _370  and  _371
REMARK  158  A    between atoms: _370  and  _373
REMARK  159  A    between atoms: _373  and  _374
REMARK  160  A    between atoms: _377  and  _379
REMARK  161  A    between atoms: _379  and  _380
REMARK  162  A    between atoms: _379  and  _382
REMARK  163  A    between atoms: _382  and  _383
REMARK  164  A    between atoms: _383  and  _384
REMARK  165  A    between atoms: _389  and  _391
REMARK  166  A    between atoms: _391  and  _392
REMARK  167  A    between atoms: _391  and  _394
REMARK  168  A    between atoms: _397  and  _399
REMARK  169  A    between atoms: _399  and  _400
REMARK  170  A    between atoms: _399  and  _402
REMARK  171  A    between atoms: _402  and  _403
REMARK  172  A    between atoms: _406  and  _408
REMARK  173  A    between atoms: _408  and  _409
REMARK  174  A    between atoms: _408  and  _411
REMARK  175  A    between atoms: _411  and  _412
REMARK  176  A    between atoms: _412  and  _413
REMARK  177  A    between atoms: _415  and  _417
REMARK  178  A    between atoms: _417  and  _418
REMARK  179  A    between atoms: _417  and  _420
REMARK  180  A    between atoms: _420  and  _421
REMARK  181  A    between atoms: _421  and  _422
REMARK  182  A    between atoms: _425  and  _427
REMARK  183  A    between atoms: _427  and  _428
REMARK  184  A    between atoms: _427  and  _430
REMARK  185  A    between atoms: _430  and  _431
REMARK  186  A    between atoms: _434  and  _436
REMARK  187  A    between atoms: _436  and  _437
REMARK  188  A    between atoms: _436  and  _439
REMARK  189  A    between atoms: _439  and  _440
REMARK  190  A    between atoms: _443  and  _445
REMARK  191  A    between atoms: _445  and  _446
REMARK  192  A    between atoms: _445  and  _448
REMARK  193  A    between atoms: _448  and  _449
REMARK  194  A    between atoms: _454  and  _456
REMARK  195  A    between atoms: _456  and  _457
REMARK  196  A    between atoms: _460  and  _462
REMARK  197  A    between atoms: _462  and  _463
REMARK  198  A    between atoms: _462  and  _465
REMARK  199  A    between atoms: _465  and  _466
REMARK  200  A    between atoms: _469  and  _471
REMARK  201  A    between atoms: _471  and  _472
REMARK  202  A    between atoms: _471  and  _474
REMARK  203  A    between atoms: _477  and  _479
REMARK  204  A    between atoms: _479  and  _480
REMARK  205  A    between atoms: _479  and  _482
REMARK  206  A    between atoms: _482  and  _483
REMARK  207  A    between atoms: _483  and  _484
REMARK  208  A    between atoms: _484  and  _485
REMARK  209  A    between atoms: _494  and  _496
REMARK  210  A    between atoms: _496  and  _497
REMARK  211  A    between atoms: _496  and  _499
REMARK  212  A    between atoms: _499  and  _500
REMARK  213  A    between atoms: _503  and  _505
REMARK  214  A    between atoms: _505  and  _506
REMARK  215  A    between atoms: _505  and  _508
REMARK  216  A    between atoms: _508  and  _509
REMARK  217  A    between atoms: _512  and  _514
REMARK  218  A    between atoms: _514  and  _515
REMARK  219  A    between atoms: _514  and  _517
REMARK  220  A    between atoms: _517  and  _518
REMARK  221  A    between atoms: _518  and  _519
REMARK  222  A    between atoms: _524  and  _526
REMARK  223  A    between atoms: _526  and  _527
REMARK  224  A    between atoms: _526  and  _529
REMARK  225  A    between atoms: _532  and  _534
REMARK  226  A    between atoms: _534  and  _535
REMARK  227  A    between atoms: _534  and  _537
REMARK  228  A    between atoms: _537  and  _538
REMARK  229  A    between atoms: _541  and  _543
REMARK  230  A    between atoms: _543  and  _544
REMARK  231  A    between atoms: _543  and  _546
REMARK  232  A    between atoms: _546  and  _547
REMARK  233  A    between atoms: _547  and  _548
REMARK  234  A    between atoms: _550  and  _552
REMARK  235  A    between atoms: _552  and  _553
REMARK  236  A    between atoms: _552  and  _555
REMARK  237  A    between atoms: _555  and  _556
REMARK  238  A    between atoms: _556  and  _557
REMARK  239  A    between atoms: _560  and  _562
REMARK  240  A    between atoms: _562  and  _563
REMARK  241  A    between atoms: _562  and  _565
REMARK  242  A    between atoms: _565  and  _566
REMARK  243  A    between atoms: _569  and  _571
REMARK  244  A    between atoms: _571  and  _572
REMARK  245  A    between atoms: _571  and  _574
REMARK  246  A    between atoms: _574  and  _575
REMARK  247  A    between atoms: _575  and  _576
REMARK  248  A    between atoms: _581  and  _583
REMARK  249  A    between atoms: _583  and  _584
REMARK  250  A    between atoms: _583  and  _586
REMARK  251  A    between atoms: _586  and  _587
REMARK  252  A    between atoms: _590  and  _592
REMARK  253  A    between atoms: _592  and  _593
REMARK  254  A    between atoms: _592  and  _595
REMARK  255  A    between atoms: _595  and  _596
REMARK  256  A    between atoms: _601  and  _603
REMARK  257  A    between atoms: _603  and  _604
REMARK  258  A    between atoms: _607  and  _609
REMARK  259  A    between atoms: _609  and  _610
REMARK  260  A    between atoms: _609  and  _612
REMARK  261  A    between atoms: _612  and  _613
REMARK  262  A    between atoms: _616  and  _618
REMARK  263  A    between atoms: _618  and  _619
REMARK  264  A    between atoms: _618  and  _621
REMARK  265  A    between atoms: _624  and  _626
REMARK  266  A    between atoms: _626  and  _627
REMARK  267  A    between atoms: _626  and  _629
REMARK  268  A    between atoms: _629  and  _630
REMARK  269  A    between atoms: _630  and  _631
REMARK  270  A    between atoms: _631  and  _632
REMARK  271  A    between atoms: _641  and  _643
REMARK  272  A    between atoms: _643  and  _644
REMARK  273  A    between atoms: _643  and  _646
REMARK  274  A    between atoms: _646  and  _647
REMARK  275  A    between atoms: _650  and  _652
REMARK  276  A    between atoms: _652  and  _653
REMARK  277  A    between atoms: _652  and  _655
REMARK  278  A    between atoms: _655  and  _656
REMARK  279  A    between atoms: _659  and  _661
REMARK  280  A    between atoms: _661  and  _662
REMARK  281  A    between atoms: _661  and  _664
REMARK  282  A    between atoms: _664  and  _665
REMARK  283  A    between atoms: _665  and  _666
REMARK  284  A    between atoms: _666  and  _667
REMARK  285  A    between atoms: _676  and  _678
REMARK  286  A    between atoms: _678  and  _679
REMARK  287  A    between atoms: _678  and  _681
REMARK  288  A    between atoms: _681  and  _682
REMARK  289  A    between atoms: _682  and  _683
REMARK  290  A    between atoms: _688  and  _690
REMARK  291  A    between atoms: _690  and  _691
REMARK  292  A    between atoms: _690  and  _693
REMARK  293  A    between atoms: _696  and  _698
REMARK  294  A    between atoms: _698  and  _699
REMARK  295  A    between atoms: _698  and  _701
REMARK  296  A    between atoms: _701  and  _702
REMARK                            x       y       z     vdW  Elec       q    Type
REMARK                         _______ _______ _______ _____ _____    ______ ____
ROOT
ATOM      1  O   HOH     1       9.646   2.304  -6.020  0.00  0.00    +0.000 OA
ENDROOT
TORSDOF 0
