REMARK  Name = ../refined-set-2016/4keq/4keq_pocket.pdb
REMARK  129 active torsions:
REMARK  status: ('A' for Active; 'I' for Inactive)
REMARK    1  A    between atoms: _1  and  _3
REMARK    2  A    between atoms: _3  and  _4
REMARK    3  A    between atoms: _3  and  _6
REMARK    4  A    between atoms: _6  and  _7
REMARK    5  A    between atoms: _10  and  _12
REMARK    6  A    between atoms: _12  and  _13
REMARK    7  A    between atoms: _12  and  _15
REMARK    8  A    between atoms: _18  and  _20
REMARK    9  A    between atoms: _20  and  _21
REMARK   10  A    between atoms: _20  and  _23
REMARK   11  A    between atoms: _23  and  _24
REMARK   12  A    between atoms: _27  and  _29
REMARK   13  A    between atoms: _29  and  _30
REMARK   14  A    between atoms: _29  and  _32
REMARK   15  A    between atoms: _32  and  _33
REMARK   16  A    between atoms: _36  and  _38
REMARK   17  A    between atoms: _38  and  _39
REMARK   18  A    between atoms: _38  and  _41
REMARK   19  A    between atoms: _41  and  _42
REMARK   20  A    between atoms: _47  and  _49
REMARK   21  A    between atoms: _49  and  _50
REMARK   22  A    between atoms: _49  and  _52
REMARK   23  A    between atoms: _52  and  _53
REMARK   24  A    between atoms: _59  and  _61
REMARK   25  A    between atoms: _61  and  _62
REMARK   26  A    between atoms: _61  and  _64
REMARK   27  A    between atoms: _67  and  _69
REMARK   28  A    between atoms: _69  and  _70
REMARK   29  A    between atoms: _69  and  _72
REMARK   30  A    between atoms: _72  and  _73
REMARK   31  A    between atoms: _78  and  _79
REMARK   32  A    between atoms: _81  and  _83
REMARK   33  A    between atoms: _83  and  _84
REMARK   34  A    between atoms: _83  and  _86
REMARK   35  A    between atoms: _89  and  _91
REMARK   36  A    between atoms: _91  and  _92
REMARK   37  A    between atoms: _91  and  _94
REMARK   38  A    between atoms: _94  and  _95
REMARK   39  A    between atoms: _98  and  _100
REMARK   40  A    between atoms: _100  and  _101
REMARK   41  A    between atoms: _100  and  _103
REMARK   42  A    between atoms: _103  and  _104
REMARK   43  A    between atoms: _110  and  _112
REMARK   44  A    between atoms: _112  and  _113
REMARK   45  A    between atoms: _112  and  _115
REMARK   46  A    between atoms: _115  and  _116
REMARK   47  A    between atoms: _116  and  _117
REMARK   48  A    between atoms: _120  and  _122
REMARK   49  A    between atoms: _133  and  _136
REMARK   50  A    between atoms: _136  and  _137
REMARK   51  A    between atoms: _145  and  _146
REMARK   52  A    between atoms: _154  and  _156
REMARK   53  A    between atoms: _156  and  _157
REMARK   54  A    between atoms: _156  and  _159
REMARK   55  A    between atoms: _159  and  _160
REMARK   56  A    between atoms: _166  and  _168
REMARK   57  A    between atoms: _168  and  _169
REMARK   58  A    between atoms: _168  and  _171
REMARK   59  A    between atoms: _171  and  _172
REMARK   60  A    between atoms: _175  and  _177
REMARK   61  A    between atoms: _177  and  _178
REMARK   62  A    between atoms: _177  and  _180
REMARK   63  A    between atoms: _180  and  _181
REMARK   64  A    between atoms: _185  and  ZN_343
REMARK   65  A    between atoms: _186  and  _188
REMARK   66  A    between atoms: _188  and  _189
REMARK   67  A    between atoms: _188  and  _191
REMARK   68  A    between atoms: _191  and  _192
REMARK   69  A    between atoms: _198  and  _200
REMARK   70  A    between atoms: _200  and  _201
REMARK   71  A    between atoms: _200  and  _203
REMARK   72  A    between atoms: _203  and  _204
REMARK   73  A    between atoms: _204  and  _205
REMARK   74  A    between atoms: _208  and  _210
REMARK   75  A    between atoms: _210  and  _211
REMARK   76  A    between atoms: _210  and  _213
REMARK   77  A    between atoms: _213  and  _214
REMARK   78  A    between atoms: _219  and  _221
REMARK   79  A    between atoms: _221  and  _222
REMARK   80  A    between atoms: _221  and  _224
REMARK   81  A    between atoms: _224  and  _225
REMARK   82  A    between atoms: _228  and  _230
REMARK   83  A    between atoms: _230  and  _231
REMARK   84  A    between atoms: _233  and  _235
REMARK   85  A    between atoms: _235  and  _236
REMARK   86  A    between atoms: _235  and  _238
REMARK   87  A    between atoms: _238  and  _239
REMARK   88  A    between atoms: _244  and  _245
REMARK   89  A    between atoms: _247  and  _249
REMARK   90  A    between atoms: _249  and  _250
REMARK   91  A    between atoms: _249  and  _252
REMARK   92  A    between atoms: _252  and  _253
REMARK   93  A    between atoms: _255  and  _257
REMARK   94  A    between atoms: _257  and  _258
REMARK   95  A    between atoms: _257  and  _260
REMARK   96  A    between atoms: _260  and  _261
REMARK   97  A    between atoms: _265  and  ZN_344
REMARK   98  A    between atoms: _266  and  _268
REMARK   99  A    between atoms: _268  and  _269
REMARK  100  A    between atoms: _268  and  _271
REMARK  101  A    between atoms: _271  and  _272
REMARK  102  A    between atoms: _272  and  _274
REMARK  103  A    between atoms: _274  and  ZN_344
REMARK  104  A    between atoms: _275  and  _277
REMARK  105  A    between atoms: _277  and  _278
REMARK  106  A    between atoms: _277  and  _280
REMARK  107  A    between atoms: _280  and  _281
REMARK  108  A    between atoms: _286  and  _287
REMARK  109  A    between atoms: _289  and  _291
REMARK  110  A    between atoms: _291  and  _292
REMARK  111  A    between atoms: _295  and  _297
REMARK  112  A    between atoms: _297  and  _298
REMARK  113  A    between atoms: _301  and  _303
REMARK  114  A    between atoms: _303  and  _304
REMARK  115  A    between atoms: _303  and  _306
REMARK  116  A    between atoms: _306  and  _307
REMARK  117  A    between atoms: _313  and  _315
REMARK  118  A    between atoms: _315  and  _316
REMARK  119  A    between atoms: _315  and  _318
REMARK  120  A    between atoms: _318  and  _319
REMARK  121  A    between atoms: _324  and  _326
REMARK  122  A    between atoms: _326  and  _327
REMARK  123  A    between atoms: _326  and  _329
REMARK  124  A    between atoms: _329  and  _330
REMARK  125  A    between atoms: _332  and  _334
REMARK  126  A    between atoms: _334  and  _335
REMARK  127  A    between atoms: _334  and  _337
REMARK  128  A    between atoms: _337  and  _338
REMARK  129  A    between atoms: _342  and  ZN_343
REMARK                            x       y       z     vdW  Elec       q    Type
REMARK                         _______ _______ _______ _____ _____    ______ ____
ROOT
ATOM      1  C   VAL A   2       2.046  13.364 -10.981  0.00  0.00    +0.241 C 
ATOM      2  N   LEU A   3       2.747  13.010  -9.912  0.00  0.00    -0.297 N 
ATOM      3  H   LEU A   3       3.758  13.249  -9.873  0.00  0.00    +0.150 HD
ATOM      4  O   VAL A   2       0.876  13.031 -11.161  0.00  0.00    -0.273 OA
ENDROOT
BRANCH   1   5
ATOM      5  CA  VAL A   2       2.792  14.217 -12.003  0.00  0.00    +0.148 C 
BRANCH   5   7
ATOM      6  C   LEU A   1       3.862  13.447 -14.038  0.00  0.00    +0.238 C 
ATOM      7  N   VAL A   2       2.744  13.668 -13.354  0.00  0.00    -0.297 N 
ATOM      8  H   VAL A   2       1.824  13.447 -13.787  0.00  0.00    +0.150 HD
ATOM      9  O   LEU A   1       4.978  13.658 -13.567  0.00  0.00    -0.274 OA
BRANCH   6  10
ATOM     10  CA  LEU A   1       3.706  12.894 -15.454  0.00  0.00    +0.145 C 
BRANCH  10  11
ATOM     11  N   LEU A   1       4.981  12.990 -16.163  0.00  0.00    -0.238 NA
ATOM     12  H   LEU A   1       5.857  12.814 -15.632  0.00  0.00    +0.142 HD
ENDBRANCH  10  11
BRANCH  10  13
ATOM     13  CB  LEU A   1       3.238  11.435 -15.375  0.00  0.00    +0.026 C 
BRANCH  13  14
ATOM     14  CG  LEU A   1       2.761  10.653 -16.607  0.00  0.00    +0.002 C 
ATOM     15  CD2 LEU A   1       2.432   9.217 -16.193  0.00  0.00    +0.000 C 
ATOM     16  CD1 LEU A   1       1.551  11.304 -17.271  0.00  0.00    +0.000 C 
ENDBRANCH  13  14
ENDBRANCH  10  13
ENDBRANCH   6  10
ENDBRANCH   5   7
BRANCH   5  17
ATOM     17  CB  VAL A   2       2.267  15.672 -11.957  0.00  0.00    +0.027 C 
ATOM     18  CG2 VAL A   2       1.840  16.054 -10.547  0.00  0.00    +0.002 C 
ATOM     19  CG1 VAL A   2       3.330  16.630 -12.474  0.00  0.00    +0.002 C 
ENDBRANCH   5  17
ENDBRANCH   1   5
BRANCH   2  20
ATOM     20  CA  LEU A   3       2.149  12.299  -8.792  0.00  0.00    +0.149 C 
BRANCH  20  21
ATOM     21  C   LEU A   3       2.418  13.082  -7.525  0.00  0.00    +0.241 C 
ATOM     22  N   ASP A   4       1.647  12.819  -6.482  0.00  0.00    -0.298 N 
ATOM     23  H   ASP A   4       0.795  12.233  -6.589  0.00  0.00    +0.150 HD
ATOM     24  O   LEU A   3       3.328  13.904  -7.478  0.00  0.00    -0.273 OA
BRANCH  22  25
ATOM     25  CA  ASP A   4       2.010  13.361  -5.192  0.00  0.00    +0.148 C 
BRANCH  25  26
ATOM     26  C   ASP A   4       3.219  12.601  -4.663  0.00  0.00    +0.227 C 
ATOM     27  O   ASP A   4       3.446  11.452  -5.037  0.00  0.00    -0.286 OA
ENDBRANCH  25  26
BRANCH  25  28
ATOM     28  CB  ASP A   4       0.858  13.259  -4.208  0.00  0.00    +0.142 C 
BRANCH  28  29
ATOM     29  CG  ASP A   4       1.115  14.051  -2.955  0.00  0.00    +0.367 C 
ATOM     30  OD2 ASP A   4       1.717  13.491  -2.020  0.00  0.00    -0.246 OA
ATOM     31  OD1 ASP A   4       0.739  15.241  -2.920  0.00  0.00    -0.246 OA
ENDBRANCH  28  29
ENDBRANCH  25  28
ENDBRANCH  22  25
ENDBRANCH  20  21
BRANCH  20  32
ATOM     32  CB  LEU A   3       2.768  10.912  -8.644  0.00  0.00    +0.029 C 
BRANCH  32  33
ATOM     33  CG  LEU A   3       2.331   9.830  -9.624  0.00  0.00    +0.002 C 
ATOM     34  CD2 LEU A   3       3.179   8.580  -9.427  0.00  0.00    +0.000 C 
ATOM     35  CD1 LEU A   3       0.872   9.525  -9.428  0.00  0.00    +0.000 C 
ENDBRANCH  32  33
ENDBRANCH  20  32
ENDBRANCH   2  20
TORSDOF 15
REMARK  Name = ../refined-set-2016/4keq/4keq_pocket.pdb
REMARK  129 active torsions:
REMARK  status: ('A' for Active; 'I' for Inactive)
REMARK    1  A    between atoms: _1  and  _3
REMARK    2  A    between atoms: _3  and  _4
REMARK    3  A    between atoms: _3  and  _6
REMARK    4  A    between atoms: _6  and  _7
REMARK    5  A    between atoms: _10  and  _12
REMARK    6  A    between atoms: _12  and  _13
REMARK    7  A    between atoms: _12  and  _15
REMARK    8  A    between atoms: _18  and  _20
REMARK    9  A    between atoms: _20  and  _21
REMARK   10  A    between atoms: _20  and  _23
REMARK   11  A    between atoms: _23  and  _24
REMARK   12  A    between atoms: _27  and  _29
REMARK   13  A    between atoms: _29  and  _30
REMARK   14  A    between atoms: _29  and  _32
REMARK   15  A    between atoms: _32  and  _33
REMARK   16  A    between atoms: _36  and  _38
REMARK   17  A    between atoms: _38  and  _39
REMARK   18  A    between atoms: _38  and  _41
REMARK   19  A    between atoms: _41  and  _42
REMARK   20  A    between atoms: _47  and  _49
REMARK   21  A    between atoms: _49  and  _50
REMARK   22  A    between atoms: _49  and  _52
REMARK   23  A    between atoms: _52  and  _53
REMARK   24  A    between atoms: _59  and  _61
REMARK   25  A    between atoms: _61  and  _62
REMARK   26  A    between atoms: _61  and  _64
REMARK   27  A    between atoms: _67  and  _69
REMARK   28  A    between atoms: _69  and  _70
REMARK   29  A    between atoms: _69  and  _72
REMARK   30  A    between atoms: _72  and  _73
REMARK   31  A    between atoms: _78  and  _79
REMARK   32  A    between atoms: _81  and  _83
REMARK   33  A    between atoms: _83  and  _84
REMARK   34  A    between atoms: _83  and  _86
REMARK   35  A    between atoms: _89  and  _91
REMARK   36  A    between atoms: _91  and  _92
REMARK   37  A    between atoms: _91  and  _94
REMARK   38  A    between atoms: _94  and  _95
REMARK   39  A    between atoms: _98  and  _100
REMARK   40  A    between atoms: _100  and  _101
REMARK   41  A    between atoms: _100  and  _103
REMARK   42  A    between atoms: _103  and  _104
REMARK   43  A    between atoms: _110  and  _112
REMARK   44  A    between atoms: _112  and  _113
REMARK   45  A    between atoms: _112  and  _115
REMARK   46  A    between atoms: _115  and  _116
REMARK   47  A    between atoms: _116  and  _117
REMARK   48  A    between atoms: _120  and  _122
REMARK   49  A    between atoms: _133  and  _136
REMARK   50  A    between atoms: _136  and  _137
REMARK   51  A    between atoms: _145  and  _146
REMARK   52  A    between atoms: _154  and  _156
REMARK   53  A    between atoms: _156  and  _157
REMARK   54  A    between atoms: _156  and  _159
REMARK   55  A    between atoms: _159  and  _160
REMARK   56  A    between atoms: _166  and  _168
REMARK   57  A    between atoms: _168  and  _169
REMARK   58  A    between atoms: _168  and  _171
REMARK   59  A    between atoms: _171  and  _172
REMARK   60  A    between atoms: _175  and  _177
REMARK   61  A    between atoms: _177  and  _178
REMARK   62  A    between atoms: _177  and  _180
REMARK   63  A    between atoms: _180  and  _181
REMARK   64  A    between atoms: _185  and  ZN_343
REMARK   65  A    between atoms: _186  and  _188
REMARK   66  A    between atoms: _188  and  _189
REMARK   67  A    between atoms: _188  and  _191
REMARK   68  A    between atoms: _191  and  _192
REMARK   69  A    between atoms: _198  and  _200
REMARK   70  A    between atoms: _200  and  _201
REMARK   71  A    between atoms: _200  and  _203
REMARK   72  A    between atoms: _203  and  _204
REMARK   73  A    between atoms: _204  and  _205
REMARK   74  A    between atoms: _208  and  _210
REMARK   75  A    between atoms: _210  and  _211
REMARK   76  A    between atoms: _210  and  _213
REMARK   77  A    between atoms: _213  and  _214
REMARK   78  A    between atoms: _219  and  _221
REMARK   79  A    between atoms: _221  and  _222
REMARK   80  A    between atoms: _221  and  _224
REMARK   81  A    between atoms: _224  and  _225
REMARK   82  A    between atoms: _228  and  _230
REMARK   83  A    between atoms: _230  and  _231
REMARK   84  A    between atoms: _233  and  _235
REMARK   85  A    between atoms: _235  and  _236
REMARK   86  A    between atoms: _235  and  _238
REMARK   87  A    between atoms: _238  and  _239
REMARK   88  A    between atoms: _244  and  _245
REMARK   89  A    between atoms: _247  and  _249
REMARK   90  A    between atoms: _249  and  _250
REMARK   91  A    between atoms: _249  and  _252
REMARK   92  A    between atoms: _252  and  _253
REMARK   93  A    between atoms: _255  and  _257
REMARK   94  A    between atoms: _257  and  _258
REMARK   95  A    between atoms: _257  and  _260
REMARK   96  A    between atoms: _260  and  _261
REMARK   97  A    between atoms: _265  and  ZN_344
REMARK   98  A    between atoms: _266  and  _268
REMARK   99  A    between atoms: _268  and  _269
REMARK  100  A    between atoms: _268  and  _271
REMARK  101  A    between atoms: _271  and  _272
REMARK  102  A    between atoms: _272  and  _274
REMARK  103  A    between atoms: _274  and  ZN_344
REMARK  104  A    between atoms: _275  and  _277
REMARK  105  A    between atoms: _277  and  _278
REMARK  106  A    between atoms: _277  and  _280
REMARK  107  A    between atoms: _280  and  _281
REMARK  108  A    between atoms: _286  and  _287
REMARK  109  A    between atoms: _289  and  _291
REMARK  110  A    between atoms: _291  and  _292
REMARK  111  A    between atoms: _295  and  _297
REMARK  112  A    between atoms: _297  and  _298
REMARK  113  A    between atoms: _301  and  _303
REMARK  114  A    between atoms: _303  and  _304
REMARK  115  A    between atoms: _303  and  _306
REMARK  116  A    between atoms: _306  and  _307
REMARK  117  A    between atoms: _313  and  _315
REMARK  118  A    between atoms: _315  and  _316
REMARK  119  A    between atoms: _315  and  _318
REMARK  120  A    between atoms: _318  and  _319
REMARK  121  A    between atoms: _324  and  _326
REMARK  122  A    between atoms: _326  and  _327
REMARK  123  A    between atoms: _326  and  _329
REMARK  124  A    between atoms: _329  and  _330
REMARK  125  A    between atoms: _332  and  _334
REMARK  126  A    between atoms: _334  and  _335
REMARK  127  A    between atoms: _334  and  _337
REMARK  128  A    between atoms: _337  and  _338
REMARK  129  A    between atoms: _342  and  ZN_343
REMARK                            x       y       z     vdW  Elec       q    Type
REMARK                         _______ _______ _______ _____ _____    ______ ____
ROOT
ATOM      1  CB  HIS A   1       1.885   8.683  -5.572  0.00  0.00    +0.072 C 
ENDROOT
BRANCH   1   2
ATOM      2  CG  HIS A   1       0.444   9.067  -5.480  0.00  0.00    +0.082 A 
ATOM      3  CD2 HIS A   1      -0.645   8.358  -5.100  0.00  0.00    +0.115 A 
ATOM      4  NE2 HIS A   1      -1.732   9.191  -5.216  0.00  0.00    -0.221 NA
ATOM      5  CE1 HIS A   1      -1.325  10.368  -5.655  0.00  0.00    +0.199 A 
ATOM      6  ND1 HIS A   1      -0.015  10.320  -5.826  0.00  0.00    -0.227 NA
ENDBRANCH   1   2
BRANCH   1   7
ATOM      7  CA  HIS A   1       2.466   8.137  -4.268  0.00  0.00    +0.139 C 
BRANCH   7   8
ATOM      8  N   HIS A   1       2.620   9.204  -3.286  0.00  0.00    -0.239 NA
ATOM      9  H   HIS A   1       2.546  10.193  -3.599  0.00  0.00    +0.142 HD
ENDBRANCH   7   8
BRANCH   7  10
ATOM     10  C   HIS A   1       3.815   7.513  -4.567  0.00  0.00    +0.224 C 
ATOM     11  O   HIS A   1       3.967   6.285  -4.570  0.00  0.00    -0.287 OA
ENDBRANCH   7  10
ENDBRANCH   1   7
TORSDOF 4
REMARK  Name = ../refined-set-2016/4keq/4keq_pocket.pdb
REMARK  129 active torsions:
REMARK  status: ('A' for Active; 'I' for Inactive)
REMARK    1  A    between atoms: _1  and  _3
REMARK    2  A    between atoms: _3  and  _4
REMARK    3  A    between atoms: _3  and  _6
REMARK    4  A    between atoms: _6  and  _7
REMARK    5  A    between atoms: _10  and  _12
REMARK    6  A    between atoms: _12  and  _13
REMARK    7  A    between atoms: _12  and  _15
REMARK    8  A    between atoms: _18  and  _20
REMARK    9  A    between atoms: _20  and  _21
REMARK   10  A    between atoms: _20  and  _23
REMARK   11  A    between atoms: _23  and  _24
REMARK   12  A    between atoms: _27  and  _29
REMARK   13  A    between atoms: _29  and  _30
REMARK   14  A    between atoms: _29  and  _32
REMARK   15  A    between atoms: _32  and  _33
REMARK   16  A    between atoms: _36  and  _38
REMARK   17  A    between atoms: _38  and  _39
REMARK   18  A    between atoms: _38  and  _41
REMARK   19  A    between atoms: _41  and  _42
REMARK   20  A    between atoms: _47  and  _49
REMARK   21  A    between atoms: _49  and  _50
REMARK   22  A    between atoms: _49  and  _52
REMARK   23  A    between atoms: _52  and  _53
REMARK   24  A    between atoms: _59  and  _61
REMARK   25  A    between atoms: _61  and  _62
REMARK   26  A    between atoms: _61  and  _64
REMARK   27  A    between atoms: _67  and  _69
REMARK   28  A    between atoms: _69  and  _70
REMARK   29  A    between atoms: _69  and  _72
REMARK   30  A    between atoms: _72  and  _73
REMARK   31  A    between atoms: _78  and  _79
REMARK   32  A    between atoms: _81  and  _83
REMARK   33  A    between atoms: _83  and  _84
REMARK   34  A    between atoms: _83  and  _86
REMARK   35  A    between atoms: _89  and  _91
REMARK   36  A    between atoms: _91  and  _92
REMARK   37  A    between atoms: _91  and  _94
REMARK   38  A    between atoms: _94  and  _95
REMARK   39  A    between atoms: _98  and  _100
REMARK   40  A    between atoms: _100  and  _101
REMARK   41  A    between atoms: _100  and  _103
REMARK   42  A    between atoms: _103  and  _104
REMARK   43  A    between atoms: _110  and  _112
REMARK   44  A    between atoms: _112  and  _113
REMARK   45  A    between atoms: _112  and  _115
REMARK   46  A    between atoms: _115  and  _116
REMARK   47  A    between atoms: _116  and  _117
REMARK   48  A    between atoms: _120  and  _122
REMARK   49  A    between atoms: _133  and  _136
REMARK   50  A    between atoms: _136  and  _137
REMARK   51  A    between atoms: _145  and  _146
REMARK   52  A    between atoms: _154  and  _156
REMARK   53  A    between atoms: _156  and  _157
REMARK   54  A    between atoms: _156  and  _159
REMARK   55  A    between atoms: _159  and  _160
REMARK   56  A    between atoms: _166  and  _168
REMARK   57  A    between atoms: _168  and  _169
REMARK   58  A    between atoms: _168  and  _171
REMARK   59  A    between atoms: _171  and  _172
REMARK   60  A    between atoms: _175  and  _177
REMARK   61  A    between atoms: _177  and  _178
REMARK   62  A    between atoms: _177  and  _180
REMARK   63  A    between atoms: _180  and  _181
REMARK   64  A    between atoms: _185  and  ZN_343
REMARK   65  A    between atoms: _186  and  _188
REMARK   66  A    between atoms: _188  and  _189
REMARK   67  A    between atoms: _188  and  _191
REMARK   68  A    between atoms: _191  and  _192
REMARK   69  A    between atoms: _198  and  _200
REMARK   70  A    between atoms: _200  and  _201
REMARK   71  A    between atoms: _200  and  _203
REMARK   72  A    between atoms: _203  and  _204
REMARK   73  A    between atoms: _204  and  _205
REMARK   74  A    between atoms: _208  and  _210
REMARK   75  A    between atoms: _210  and  _211
REMARK   76  A    between atoms: _210  and  _213
REMARK   77  A    between atoms: _213  and  _214
REMARK   78  A    between atoms: _219  and  _221
REMARK   79  A    between atoms: _221  and  _222
REMARK   80  A    between atoms: _221  and  _224
REMARK   81  A    between atoms: _224  and  _225
REMARK   82  A    between atoms: _228  and  _230
REMARK   83  A    between atoms: _230  and  _231
REMARK   84  A    between atoms: _233  and  _235
REMARK   85  A    between atoms: _235  and  _236
REMARK   86  A    between atoms: _235  and  _238
REMARK   87  A    between atoms: _238  and  _239
REMARK   88  A    between atoms: _244  and  _245
REMARK   89  A    between atoms: _247  and  _249
REMARK   90  A    between atoms: _249  and  _250
REMARK   91  A    between atoms: _249  and  _252
REMARK   92  A    between atoms: _252  and  _253
REMARK   93  A    between atoms: _255  and  _257
REMARK   94  A    between atoms: _257  and  _258
REMARK   95  A    between atoms: _257  and  _260
REMARK   96  A    between atoms: _260  and  _261
REMARK   97  A    between atoms: _265  and  ZN_344
REMARK   98  A    between atoms: _266  and  _268
REMARK   99  A    between atoms: _268  and  _269
REMARK  100  A    between atoms: _268  and  _271
REMARK  101  A    between atoms: _271  and  _272
REMARK  102  A    between atoms: _272  and  _274
REMARK  103  A    between atoms: _274  and  ZN_344
REMARK  104  A    between atoms: _275  and  _277
REMARK  105  A    between atoms: _277  and  _278
REMARK  106  A    between atoms: _277  and  _280
REMARK  107  A    between atoms: _280  and  _281
REMARK  108  A    between atoms: _286  and  _287
REMARK  109  A    between atoms: _289  and  _291
REMARK  110  A    between atoms: _291  and  _292
REMARK  111  A    between atoms: _295  and  _297
REMARK  112  A    between atoms: _297  and  _298
REMARK  113  A    between atoms: _301  and  _303
REMARK  114  A    between atoms: _303  and  _304
REMARK  115  A    between atoms: _303  and  _306
REMARK  116  A    between atoms: _306  and  _307
REMARK  117  A    between atoms: _313  and  _315
REMARK  118  A    between atoms: _315  and  _316
REMARK  119  A    between atoms: _315  and  _318
REMARK  120  A    between atoms: _318  and  _319
REMARK  121  A    between atoms: _324  and  _326
REMARK  122  A    between atoms: _326  and  _327
REMARK  123  A    between atoms: _326  and  _329
REMARK  124  A    between atoms: _329  and  _330
REMARK  125  A    between atoms: _332  and  _334
REMARK  126  A    between atoms: _334  and  _335
REMARK  127  A    between atoms: _334  and  _337
REMARK  128  A    between atoms: _337  and  _338
REMARK  129  A    between atoms: _342  and  ZN_343
REMARK                            x       y       z     vdW  Elec       q    Type
REMARK                         _______ _______ _______ _____ _____    ______ ____
ROOT
ATOM      1  CB  PHE A   1       8.524  11.196 -12.234  0.00  0.00    +0.051 C 
ENDROOT
BRANCH   1   2
ATOM      2  CG  PHE A   1       7.140  10.617 -12.383  0.00  0.00    -0.020 A 
ATOM      3  CD2 PHE A   1       6.073  11.136 -11.661  0.00  0.00    -0.004 A 
ATOM      4  CE2 PHE A   1       4.799  10.617 -11.801  0.00  0.00    -0.000 A 
ATOM      5  CZ  PHE A   1       4.578   9.560 -12.660  0.00  0.00    -0.000 A 
ATOM      6  CE1 PHE A   1       5.631   9.031 -13.382  0.00  0.00    -0.000 A 
ATOM      7  CD1 PHE A   1       6.905   9.563 -13.246  0.00  0.00    -0.004 A 
ENDBRANCH   1   2
BRANCH   1   8
ATOM      8  CA  PHE A   1       8.775  12.439 -13.103  0.00  0.00    +0.137 C 
BRANCH   8   9
ATOM      9  N   PHE A   1       7.800  13.482 -12.800  0.00  0.00    -0.239 NA
ATOM     10  H   PHE A   1       6.838  13.398 -13.185  0.00  0.00    +0.142 HD
ENDBRANCH   8   9
BRANCH   8  11
ATOM     11  C   PHE A   1       8.675  12.084 -14.580  0.00  0.00    +0.224 C 
ATOM     12  O   PHE A   1       7.614  12.235 -15.182  0.00  0.00    -0.287 OA
ENDBRANCH   8  11
ENDBRANCH   1   8
TORSDOF 4
REMARK  Name = ../refined-set-2016/4keq/4keq_pocket.pdb
REMARK  129 active torsions:
REMARK  status: ('A' for Active; 'I' for Inactive)
REMARK    1  A    between atoms: _1  and  _3
REMARK    2  A    between atoms: _3  and  _4
REMARK    3  A    between atoms: _3  and  _6
REMARK    4  A    between atoms: _6  and  _7
REMARK    5  A    between atoms: _10  and  _12
REMARK    6  A    between atoms: _12  and  _13
REMARK    7  A    between atoms: _12  and  _15
REMARK    8  A    between atoms: _18  and  _20
REMARK    9  A    between atoms: _20  and  _21
REMARK   10  A    between atoms: _20  and  _23
REMARK   11  A    between atoms: _23  and  _24
REMARK   12  A    between atoms: _27  and  _29
REMARK   13  A    between atoms: _29  and  _30
REMARK   14  A    between atoms: _29  and  _32
REMARK   15  A    between atoms: _32  and  _33
REMARK   16  A    between atoms: _36  and  _38
REMARK   17  A    between atoms: _38  and  _39
REMARK   18  A    between atoms: _38  and  _41
REMARK   19  A    between atoms: _41  and  _42
REMARK   20  A    between atoms: _47  and  _49
REMARK   21  A    between atoms: _49  and  _50
REMARK   22  A    between atoms: _49  and  _52
REMARK   23  A    between atoms: _52  and  _53
REMARK   24  A    between atoms: _59  and  _61
REMARK   25  A    between atoms: _61  and  _62
REMARK   26  A    between atoms: _61  and  _64
REMARK   27  A    between atoms: _67  and  _69
REMARK   28  A    between atoms: _69  and  _70
REMARK   29  A    between atoms: _69  and  _72
REMARK   30  A    between atoms: _72  and  _73
REMARK   31  A    between atoms: _78  and  _79
REMARK   32  A    between atoms: _81  and  _83
REMARK   33  A    between atoms: _83  and  _84
REMARK   34  A    between atoms: _83  and  _86
REMARK   35  A    between atoms: _89  and  _91
REMARK   36  A    between atoms: _91  and  _92
REMARK   37  A    between atoms: _91  and  _94
REMARK   38  A    between atoms: _94  and  _95
REMARK   39  A    between atoms: _98  and  _100
REMARK   40  A    between atoms: _100  and  _101
REMARK   41  A    between atoms: _100  and  _103
REMARK   42  A    between atoms: _103  and  _104
REMARK   43  A    between atoms: _110  and  _112
REMARK   44  A    between atoms: _112  and  _113
REMARK   45  A    between atoms: _112  and  _115
REMARK   46  A    between atoms: _115  and  _116
REMARK   47  A    between atoms: _116  and  _117
REMARK   48  A    between atoms: _120  and  _122
REMARK   49  A    between atoms: _133  and  _136
REMARK   50  A    between atoms: _136  and  _137
REMARK   51  A    between atoms: _145  and  _146
REMARK   52  A    between atoms: _154  and  _156
REMARK   53  A    between atoms: _156  and  _157
REMARK   54  A    between atoms: _156  and  _159
REMARK   55  A    between atoms: _159  and  _160
REMARK   56  A    between atoms: _166  and  _168
REMARK   57  A    between atoms: _168  and  _169
REMARK   58  A    between atoms: _168  and  _171
REMARK   59  A    between atoms: _171  and  _172
REMARK   60  A    between atoms: _175  and  _177
REMARK   61  A    between atoms: _177  and  _178
REMARK   62  A    between atoms: _177  and  _180
REMARK   63  A    between atoms: _180  and  _181
REMARK   64  A    between atoms: _185  and  ZN_343
REMARK   65  A    between atoms: _186  and  _188
REMARK   66  A    between atoms: _188  and  _189
REMARK   67  A    between atoms: _188  and  _191
REMARK   68  A    between atoms: _191  and  _192
REMARK   69  A    between atoms: _198  and  _200
REMARK   70  A    between atoms: _200  and  _201
REMARK   71  A    between atoms: _200  and  _203
REMARK   72  A    between atoms: _203  and  _204
REMARK   73  A    between atoms: _204  and  _205
REMARK   74  A    between atoms: _208  and  _210
REMARK   75  A    between atoms: _210  and  _211
REMARK   76  A    between atoms: _210  and  _213
REMARK   77  A    between atoms: _213  and  _214
REMARK   78  A    between atoms: _219  and  _221
REMARK   79  A    between atoms: _221  and  _222
REMARK   80  A    between atoms: _221  and  _224
REMARK   81  A    between atoms: _224  and  _225
REMARK   82  A    between atoms: _228  and  _230
REMARK   83  A    between atoms: _230  and  _231
REMARK   84  A    between atoms: _233  and  _235
REMARK   85  A    between atoms: _235  and  _236
REMARK   86  A    between atoms: _235  and  _238
REMARK   87  A    between atoms: _238  and  _239
REMARK   88  A    between atoms: _244  and  _245
REMARK   89  A    between atoms: _247  and  _249
REMARK   90  A    between atoms: _249  and  _250
REMARK   91  A    between atoms: _249  and  _252
REMARK   92  A    between atoms: _252  and  _253
REMARK   93  A    between atoms: _255  and  _257
REMARK   94  A    between atoms: _257  and  _258
REMARK   95  A    between atoms: _257  and  _260
REMARK   96  A    between atoms: _260  and  _261
REMARK   97  A    between atoms: _265  and  ZN_344
REMARK   98  A    between atoms: _266  and  _268
REMARK   99  A    between atoms: _268  and  _269
REMARK  100  A    between atoms: _268  and  _271
REMARK  101  A    between atoms: _271  and  _272
REMARK  102  A    between atoms: _272  and  _274
REMARK  103  A    between atoms: _274  and  ZN_344
REMARK  104  A    between atoms: _275  and  _277
REMARK  105  A    between atoms: _277  and  _278
REMARK  106  A    between atoms: _277  and  _280
REMARK  107  A    between atoms: _280  and  _281
REMARK  108  A    between atoms: _286  and  _287
REMARK  109  A    between atoms: _289  and  _291
REMARK  110  A    between atoms: _291  and  _292
REMARK  111  A    between atoms: _295  and  _297
REMARK  112  A    between atoms: _297  and  _298
REMARK  113  A    between atoms: _301  and  _303
REMARK  114  A    between atoms: _303  and  _304
REMARK  115  A    between atoms: _303  and  _306
REMARK  116  A    between atoms: _306  and  _307
REMARK  117  A    between atoms: _313  and  _315
REMARK  118  A    between atoms: _315  and  _316
REMARK  119  A    between atoms: _315  and  _318
REMARK  120  A    between atoms: _318  and  _319
REMARK  121  A    between atoms: _324  and  _326
REMARK  122  A    between atoms: _326  and  _327
REMARK  123  A    between atoms: _326  and  _329
REMARK  124  A    between atoms: _329  and  _330
REMARK  125  A    between atoms: _332  and  _334
REMARK  126  A    between atoms: _334  and  _335
REMARK  127  A    between atoms: _334  and  _337
REMARK  128  A    between atoms: _337  and  _338
REMARK  129  A    between atoms: _342  and  ZN_343
REMARK                            x       y       z     vdW  Elec       q    Type
REMARK                         _______ _______ _______ _____ _____    ______ ____
ROOT
ATOM      1  CA  VAL A   1       8.440   8.179 -18.397  0.00  0.00    +0.133 C 
ENDROOT
BRANCH   1   2
ATOM      2  CB  VAL A   1       6.933   8.050 -18.689  0.00  0.00    +0.023 C 
ATOM      3  CG2 VAL A   1       6.120   8.424 -17.460  0.00  0.00    +0.002 C 
ATOM      4  CG1 VAL A   1       6.595   6.634 -19.142  0.00  0.00    +0.002 C 
ENDBRANCH   1   2
BRANCH   1   5
ATOM      5  N   VAL A   1       8.807   9.535 -18.017  0.00  0.00    -0.239 NA
ATOM      6  H   VAL A   1       8.738  10.296 -18.723  0.00  0.00    +0.142 HD
ENDBRANCH   1   5
BRANCH   1   7
ATOM      7  C   VAL A   1       9.236   7.841 -19.644  0.00  0.00    +0.224 C 
ATOM      8  O   VAL A   1       9.368   8.676 -20.542  0.00  0.00    -0.287 OA
ENDBRANCH   1   7
TORSDOF 3
REMARK  Name = ../refined-set-2016/4keq/4keq_pocket.pdb
REMARK  129 active torsions:
REMARK  status: ('A' for Active; 'I' for Inactive)
REMARK    1  A    between atoms: _1  and  _3
REMARK    2  A    between atoms: _3  and  _4
REMARK    3  A    between atoms: _3  and  _6
REMARK    4  A    between atoms: _6  and  _7
REMARK    5  A    between atoms: _10  and  _12
REMARK    6  A    between atoms: _12  and  _13
REMARK    7  A    between atoms: _12  and  _15
REMARK    8  A    between atoms: _18  and  _20
REMARK    9  A    between atoms: _20  and  _21
REMARK   10  A    between atoms: _20  and  _23
REMARK   11  A    between atoms: _23  and  _24
REMARK   12  A    between atoms: _27  and  _29
REMARK   13  A    between atoms: _29  and  _30
REMARK   14  A    between atoms: _29  and  _32
REMARK   15  A    between atoms: _32  and  _33
REMARK   16  A    between atoms: _36  and  _38
REMARK   17  A    between atoms: _38  and  _39
REMARK   18  A    between atoms: _38  and  _41
REMARK   19  A    between atoms: _41  and  _42
REMARK   20  A    between atoms: _47  and  _49
REMARK   21  A    between atoms: _49  and  _50
REMARK   22  A    between atoms: _49  and  _52
REMARK   23  A    between atoms: _52  and  _53
REMARK   24  A    between atoms: _59  and  _61
REMARK   25  A    between atoms: _61  and  _62
REMARK   26  A    between atoms: _61  and  _64
REMARK   27  A    between atoms: _67  and  _69
REMARK   28  A    between atoms: _69  and  _70
REMARK   29  A    between atoms: _69  and  _72
REMARK   30  A    between atoms: _72  and  _73
REMARK   31  A    between atoms: _78  and  _79
REMARK   32  A    between atoms: _81  and  _83
REMARK   33  A    between atoms: _83  and  _84
REMARK   34  A    between atoms: _83  and  _86
REMARK   35  A    between atoms: _89  and  _91
REMARK   36  A    between atoms: _91  and  _92
REMARK   37  A    between atoms: _91  and  _94
REMARK   38  A    between atoms: _94  and  _95
REMARK   39  A    between atoms: _98  and  _100
REMARK   40  A    between atoms: _100  and  _101
REMARK   41  A    between atoms: _100  and  _103
REMARK   42  A    between atoms: _103  and  _104
REMARK   43  A    between atoms: _110  and  _112
REMARK   44  A    between atoms: _112  and  _113
REMARK   45  A    between atoms: _112  and  _115
REMARK   46  A    between atoms: _115  and  _116
REMARK   47  A    between atoms: _116  and  _117
REMARK   48  A    between atoms: _120  and  _122
REMARK   49  A    between atoms: _133  and  _136
REMARK   50  A    between atoms: _136  and  _137
REMARK   51  A    between atoms: _145  and  _146
REMARK   52  A    between atoms: _154  and  _156
REMARK   53  A    between atoms: _156  and  _157
REMARK   54  A    between atoms: _156  and  _159
REMARK   55  A    between atoms: _159  and  _160
REMARK   56  A    between atoms: _166  and  _168
REMARK   57  A    between atoms: _168  and  _169
REMARK   58  A    between atoms: _168  and  _171
REMARK   59  A    between atoms: _171  and  _172
REMARK   60  A    between atoms: _175  and  _177
REMARK   61  A    between atoms: _177  and  _178
REMARK   62  A    between atoms: _177  and  _180
REMARK   63  A    between atoms: _180  and  _181
REMARK   64  A    between atoms: _185  and  ZN_343
REMARK   65  A    between atoms: _186  and  _188
REMARK   66  A    between atoms: _188  and  _189
REMARK   67  A    between atoms: _188  and  _191
REMARK   68  A    between atoms: _191  and  _192
REMARK   69  A    between atoms: _198  and  _200
REMARK   70  A    between atoms: _200  and  _201
REMARK   71  A    between atoms: _200  and  _203
REMARK   72  A    between atoms: _203  and  _204
REMARK   73  A    between atoms: _204  and  _205
REMARK   74  A    between atoms: _208  and  _210
REMARK   75  A    between atoms: _210  and  _211
REMARK   76  A    between atoms: _210  and  _213
REMARK   77  A    between atoms: _213  and  _214
REMARK   78  A    between atoms: _219  and  _221
REMARK   79  A    between atoms: _221  and  _222
REMARK   80  A    between atoms: _221  and  _224
REMARK   81  A    between atoms: _224  and  _225
REMARK   82  A    between atoms: _228  and  _230
REMARK   83  A    between atoms: _230  and  _231
REMARK   84  A    between atoms: _233  and  _235
REMARK   85  A    between atoms: _235  and  _236
REMARK   86  A    between atoms: _235  and  _238
REMARK   87  A    between atoms: _238  and  _239
REMARK   88  A    between atoms: _244  and  _245
REMARK   89  A    between atoms: _247  and  _249
REMARK   90  A    between atoms: _249  and  _250
REMARK   91  A    between atoms: _249  and  _252
REMARK   92  A    between atoms: _252  and  _253
REMARK   93  A    between atoms: _255  and  _257
REMARK   94  A    between atoms: _257  and  _258
REMARK   95  A    between atoms: _257  and  _260
REMARK   96  A    between atoms: _260  and  _261
REMARK   97  A    between atoms: _265  and  ZN_344
REMARK   98  A    between atoms: _266  and  _268
REMARK   99  A    between atoms: _268  and  _269
REMARK  100  A    between atoms: _268  and  _271
REMARK  101  A    between atoms: _271  and  _272
REMARK  102  A    between atoms: _272  and  _274
REMARK  103  A    between atoms: _274  and  ZN_344
REMARK  104  A    between atoms: _275  and  _277
REMARK  105  A    between atoms: _277  and  _278
REMARK  106  A    between atoms: _277  and  _280
REMARK  107  A    between atoms: _280  and  _281
REMARK  108  A    between atoms: _286  and  _287
REMARK  109  A    between atoms: _289  and  _291
REMARK  110  A    between atoms: _291  and  _292
REMARK  111  A    between atoms: _295  and  _297
REMARK  112  A    between atoms: _297  and  _298
REMARK  113  A    between atoms: _301  and  _303
REMARK  114  A    between atoms: _303  and  _304
REMARK  115  A    between atoms: _303  and  _306
REMARK  116  A    between atoms: _306  and  _307
REMARK  117  A    between atoms: _313  and  _315
REMARK  118  A    between atoms: _315  and  _316
REMARK  119  A    between atoms: _315  and  _318
REMARK  120  A    between atoms: _318  and  _319
REMARK  121  A    between atoms: _324  and  _326
REMARK  122  A    between atoms: _326  and  _327
REMARK  123  A    between atoms: _326  and  _329
REMARK  124  A    between atoms: _329  and  _330
REMARK  125  A    between atoms: _332  and  _334
REMARK  126  A    between atoms: _334  and  _335
REMARK  127  A    between atoms: _334  and  _337
REMARK  128  A    between atoms: _337  and  _338
REMARK  129  A    between atoms: _342  and  ZN_343
REMARK                            x       y       z     vdW  Elec       q    Type
REMARK                         _______ _______ _______ _____ _____    ______ ____
ROOT
ATOM      1  CG  TYR A   1       2.093   8.799 -20.597  0.00  0.00    -0.020 A 
ATOM      2  CD2 TYR A   1       3.321   9.207 -20.079  0.00  0.00    -0.001 A 
ATOM      3  CE2 TYR A   1       3.709  10.541 -20.119  0.00  0.00    +0.036 A 
ATOM      4  CZ  TYR A   1       2.853  11.483 -20.670  0.00  0.00    +0.134 A 
ATOM      5  CE1 TYR A   1       1.633  11.100 -21.176  0.00  0.00    +0.036 A 
ATOM      6  CD1 TYR A   1       1.255   9.772 -21.131  0.00  0.00    -0.001 A 
ENDROOT
BRANCH   4   7
ATOM      7  OH  TYR A   1       3.207  12.814 -20.721  0.00  0.00    -0.506 OA
ATOM      8  HH  TYR A   1       3.361  13.149 -19.802  0.00  0.00    +0.292 HD
ENDBRANCH   4   7
BRANCH   1   9
ATOM      9  CB  TYR A   1       1.652   7.339 -20.531  0.00  0.00    +0.051 C 
BRANCH   9  10
ATOM     10  CA  TYR A   1       1.853   6.501 -21.804  0.00  0.00    +0.137 C 
BRANCH  10  11
ATOM     11  N   TYR A   1       3.262   6.212 -22.027  0.00  0.00    -0.239 NA
ATOM     12  H   TYR A   1       3.940   6.998 -22.097  0.00  0.00    +0.142 HD
ENDBRANCH  10  11
BRANCH  10  13
ATOM     13  C   TYR A   1       1.226   7.168 -23.025  0.00  0.00    +0.224 C 
ATOM     14  O   TYR A   1       1.900   7.886 -23.764  0.00  0.00    -0.287 OA
ENDBRANCH  10  13
ENDBRANCH   9  10
ENDBRANCH   1   9
TORSDOF 5
REMARK  Name = ../refined-set-2016/4keq/4keq_pocket.pdb
REMARK  129 active torsions:
REMARK  status: ('A' for Active; 'I' for Inactive)
REMARK    1  A    between atoms: _1  and  _3
REMARK    2  A    between atoms: _3  and  _4
REMARK    3  A    between atoms: _3  and  _6
REMARK    4  A    between atoms: _6  and  _7
REMARK    5  A    between atoms: _10  and  _12
REMARK    6  A    between atoms: _12  and  _13
REMARK    7  A    between atoms: _12  and  _15
REMARK    8  A    between atoms: _18  and  _20
REMARK    9  A    between atoms: _20  and  _21
REMARK   10  A    between atoms: _20  and  _23
REMARK   11  A    between atoms: _23  and  _24
REMARK   12  A    between atoms: _27  and  _29
REMARK   13  A    between atoms: _29  and  _30
REMARK   14  A    between atoms: _29  and  _32
REMARK   15  A    between atoms: _32  and  _33
REMARK   16  A    between atoms: _36  and  _38
REMARK   17  A    between atoms: _38  and  _39
REMARK   18  A    between atoms: _38  and  _41
REMARK   19  A    between atoms: _41  and  _42
REMARK   20  A    between atoms: _47  and  _49
REMARK   21  A    between atoms: _49  and  _50
REMARK   22  A    between atoms: _49  and  _52
REMARK   23  A    between atoms: _52  and  _53
REMARK   24  A    between atoms: _59  and  _61
REMARK   25  A    between atoms: _61  and  _62
REMARK   26  A    between atoms: _61  and  _64
REMARK   27  A    between atoms: _67  and  _69
REMARK   28  A    between atoms: _69  and  _70
REMARK   29  A    between atoms: _69  and  _72
REMARK   30  A    between atoms: _72  and  _73
REMARK   31  A    between atoms: _78  and  _79
REMARK   32  A    between atoms: _81  and  _83
REMARK   33  A    between atoms: _83  and  _84
REMARK   34  A    between atoms: _83  and  _86
REMARK   35  A    between atoms: _89  and  _91
REMARK   36  A    between atoms: _91  and  _92
REMARK   37  A    between atoms: _91  and  _94
REMARK   38  A    between atoms: _94  and  _95
REMARK   39  A    between atoms: _98  and  _100
REMARK   40  A    between atoms: _100  and  _101
REMARK   41  A    between atoms: _100  and  _103
REMARK   42  A    between atoms: _103  and  _104
REMARK   43  A    between atoms: _110  and  _112
REMARK   44  A    between atoms: _112  and  _113
REMARK   45  A    between atoms: _112  and  _115
REMARK   46  A    between atoms: _115  and  _116
REMARK   47  A    between atoms: _116  and  _117
REMARK   48  A    between atoms: _120  and  _122
REMARK   49  A    between atoms: _133  and  _136
REMARK   50  A    between atoms: _136  and  _137
REMARK   51  A    between atoms: _145  and  _146
REMARK   52  A    between atoms: _154  and  _156
REMARK   53  A    between atoms: _156  and  _157
REMARK   54  A    between atoms: _156  and  _159
REMARK   55  A    between atoms: _159  and  _160
REMARK   56  A    between atoms: _166  and  _168
REMARK   57  A    between atoms: _168  and  _169
REMARK   58  A    between atoms: _168  and  _171
REMARK   59  A    between atoms: _171  and  _172
REMARK   60  A    between atoms: _175  and  _177
REMARK   61  A    between atoms: _177  and  _178
REMARK   62  A    between atoms: _177  and  _180
REMARK   63  A    between atoms: _180  and  _181
REMARK   64  A    between atoms: _185  and  ZN_343
REMARK   65  A    between atoms: _186  and  _188
REMARK   66  A    between atoms: _188  and  _189
REMARK   67  A    between atoms: _188  and  _191
REMARK   68  A    between atoms: _191  and  _192
REMARK   69  A    between atoms: _198  and  _200
REMARK   70  A    between atoms: _200  and  _201
REMARK   71  A    between atoms: _200  and  _203
REMARK   72  A    between atoms: _203  and  _204
REMARK   73  A    between atoms: _204  and  _205
REMARK   74  A    between atoms: _208  and  _210
REMARK   75  A    between atoms: _210  and  _211
REMARK   76  A    between atoms: _210  and  _213
REMARK   77  A    between atoms: _213  and  _214
REMARK   78  A    between atoms: _219  and  _221
REMARK   79  A    between atoms: _221  and  _222
REMARK   80  A    between atoms: _221  and  _224
REMARK   81  A    between atoms: _224  and  _225
REMARK   82  A    between atoms: _228  and  _230
REMARK   83  A    between atoms: _230  and  _231
REMARK   84  A    between atoms: _233  and  _235
REMARK   85  A    between atoms: _235  and  _236
REMARK   86  A    between atoms: _235  and  _238
REMARK   87  A    between atoms: _238  and  _239
REMARK   88  A    between atoms: _244  and  _245
REMARK   89  A    between atoms: _247  and  _249
REMARK   90  A    between atoms: _249  and  _250
REMARK   91  A    between atoms: _249  and  _252
REMARK   92  A    between atoms: _252  and  _253
REMARK   93  A    between atoms: _255  and  _257
REMARK   94  A    between atoms: _257  and  _258
REMARK   95  A    between atoms: _257  and  _260
REMARK   96  A    between atoms: _260  and  _261
REMARK   97  A    between atoms: _265  and  ZN_344
REMARK   98  A    between atoms: _266  and  _268
REMARK   99  A    between atoms: _268  and  _269
REMARK  100  A    between atoms: _268  and  _271
REMARK  101  A    between atoms: _271  and  _272
REMARK  102  A    between atoms: _272  and  _274
REMARK  103  A    between atoms: _274  and  ZN_344
REMARK  104  A    between atoms: _275  and  _277
REMARK  105  A    between atoms: _277  and  _278
REMARK  106  A    between atoms: _277  and  _280
REMARK  107  A    between atoms: _280  and  _281
REMARK  108  A    between atoms: _286  and  _287
REMARK  109  A    between atoms: _289  and  _291
REMARK  110  A    between atoms: _291  and  _292
REMARK  111  A    between atoms: _295  and  _297
REMARK  112  A    between atoms: _297  and  _298
REMARK  113  A    between atoms: _301  and  _303
REMARK  114  A    between atoms: _303  and  _304
REMARK  115  A    between atoms: _303  and  _306
REMARK  116  A    between atoms: _306  and  _307
REMARK  117  A    between atoms: _313  and  _315
REMARK  118  A    between atoms: _315  and  _316
REMARK  119  A    between atoms: _315  and  _318
REMARK  120  A    between atoms: _318  and  _319
REMARK  121  A    between atoms: _324  and  _326
REMARK  122  A    between atoms: _326  and  _327
REMARK  123  A    between atoms: _326  and  _329
REMARK  124  A    between atoms: _329  and  _330
REMARK  125  A    between atoms: _332  and  _334
REMARK  126  A    between atoms: _334  and  _335
REMARK  127  A    between atoms: _334  and  _337
REMARK  128  A    between atoms: _337  and  _338
REMARK  129  A    between atoms: _342  and  ZN_343
REMARK                            x       y       z     vdW  Elec       q    Type
REMARK                         _______ _______ _______ _____ _____    ______ ____
ROOT
ATOM      1  CA  VAL A   1      -4.025  10.418 -19.554  0.00  0.00    +0.133 C 
ENDROOT
BRANCH   1   2
ATOM      2  CB  VAL A   1      -2.533  10.727 -19.372  0.00  0.00    +0.023 C 
ATOM      3  CG2 VAL A   1      -2.309  11.440 -18.052  0.00  0.00    +0.002 C 
ATOM      4  CG1 VAL A   1      -1.727   9.442 -19.420  0.00  0.00    +0.002 C 
ENDBRANCH   1   2
BRANCH   1   5
ATOM      5  N   VAL A   1      -4.301   9.759 -20.820  0.00  0.00    -0.239 NA
ATOM      6  H   VAL A   1      -3.569   9.719 -21.558  0.00  0.00    +0.142 HD
ENDBRANCH   1   5
BRANCH   1   7
ATOM      7  C   VAL A   1      -4.865  11.683 -19.386  0.00  0.00    +0.224 C 
ATOM      8  O   VAL A   1      -5.448  11.900 -18.327  0.00  0.00    -0.287 OA
ENDBRANCH   1   7
TORSDOF 3
REMARK  Name = ../refined-set-2016/4keq/4keq_pocket.pdb
REMARK  129 active torsions:
REMARK  status: ('A' for Active; 'I' for Inactive)
REMARK    1  A    between atoms: _1  and  _3
REMARK    2  A    between atoms: _3  and  _4
REMARK    3  A    between atoms: _3  and  _6
REMARK    4  A    between atoms: _6  and  _7
REMARK    5  A    between atoms: _10  and  _12
REMARK    6  A    between atoms: _12  and  _13
REMARK    7  A    between atoms: _12  and  _15
REMARK    8  A    between atoms: _18  and  _20
REMARK    9  A    between atoms: _20  and  _21
REMARK   10  A    between atoms: _20  and  _23
REMARK   11  A    between atoms: _23  and  _24
REMARK   12  A    between atoms: _27  and  _29
REMARK   13  A    between atoms: _29  and  _30
REMARK   14  A    between atoms: _29  and  _32
REMARK   15  A    between atoms: _32  and  _33
REMARK   16  A    between atoms: _36  and  _38
REMARK   17  A    between atoms: _38  and  _39
REMARK   18  A    between atoms: _38  and  _41
REMARK   19  A    between atoms: _41  and  _42
REMARK   20  A    between atoms: _47  and  _49
REMARK   21  A    between atoms: _49  and  _50
REMARK   22  A    between atoms: _49  and  _52
REMARK   23  A    between atoms: _52  and  _53
REMARK   24  A    between atoms: _59  and  _61
REMARK   25  A    between atoms: _61  and  _62
REMARK   26  A    between atoms: _61  and  _64
REMARK   27  A    between atoms: _67  and  _69
REMARK   28  A    between atoms: _69  and  _70
REMARK   29  A    between atoms: _69  and  _72
REMARK   30  A    between atoms: _72  and  _73
REMARK   31  A    between atoms: _78  and  _79
REMARK   32  A    between atoms: _81  and  _83
REMARK   33  A    between atoms: _83  and  _84
REMARK   34  A    between atoms: _83  and  _86
REMARK   35  A    between atoms: _89  and  _91
REMARK   36  A    between atoms: _91  and  _92
REMARK   37  A    between atoms: _91  and  _94
REMARK   38  A    between atoms: _94  and  _95
REMARK   39  A    between atoms: _98  and  _100
REMARK   40  A    between atoms: _100  and  _101
REMARK   41  A    between atoms: _100  and  _103
REMARK   42  A    between atoms: _103  and  _104
REMARK   43  A    between atoms: _110  and  _112
REMARK   44  A    between atoms: _112  and  _113
REMARK   45  A    between atoms: _112  and  _115
REMARK   46  A    between atoms: _115  and  _116
REMARK   47  A    between atoms: _116  and  _117
REMARK   48  A    between atoms: _120  and  _122
REMARK   49  A    between atoms: _133  and  _136
REMARK   50  A    between atoms: _136  and  _137
REMARK   51  A    between atoms: _145  and  _146
REMARK   52  A    between atoms: _154  and  _156
REMARK   53  A    between atoms: _156  and  _157
REMARK   54  A    between atoms: _156  and  _159
REMARK   55  A    between atoms: _159  and  _160
REMARK   56  A    between atoms: _166  and  _168
REMARK   57  A    between atoms: _168  and  _169
REMARK   58  A    between atoms: _168  and  _171
REMARK   59  A    between atoms: _171  and  _172
REMARK   60  A    between atoms: _175  and  _177
REMARK   61  A    between atoms: _177  and  _178
REMARK   62  A    between atoms: _177  and  _180
REMARK   63  A    between atoms: _180  and  _181
REMARK   64  A    between atoms: _185  and  ZN_343
REMARK   65  A    between atoms: _186  and  _188
REMARK   66  A    between atoms: _188  and  _189
REMARK   67  A    between atoms: _188  and  _191
REMARK   68  A    between atoms: _191  and  _192
REMARK   69  A    between atoms: _198  and  _200
REMARK   70  A    between atoms: _200  and  _201
REMARK   71  A    between atoms: _200  and  _203
REMARK   72  A    between atoms: _203  and  _204
REMARK   73  A    between atoms: _204  and  _205
REMARK   74  A    between atoms: _208  and  _210
REMARK   75  A    between atoms: _210  and  _211
REMARK   76  A    between atoms: _210  and  _213
REMARK   77  A    between atoms: _213  and  _214
REMARK   78  A    between atoms: _219  and  _221
REMARK   79  A    between atoms: _221  and  _222
REMARK   80  A    between atoms: _221  and  _224
REMARK   81  A    between atoms: _224  and  _225
REMARK   82  A    between atoms: _228  and  _230
REMARK   83  A    between atoms: _230  and  _231
REMARK   84  A    between atoms: _233  and  _235
REMARK   85  A    between atoms: _235  and  _236
REMARK   86  A    between atoms: _235  and  _238
REMARK   87  A    between atoms: _238  and  _239
REMARK   88  A    between atoms: _244  and  _245
REMARK   89  A    between atoms: _247  and  _249
REMARK   90  A    between atoms: _249  and  _250
REMARK   91  A    between atoms: _249  and  _252
REMARK   92  A    between atoms: _252  and  _253
REMARK   93  A    between atoms: _255  and  _257
REMARK   94  A    between atoms: _257  and  _258
REMARK   95  A    between atoms: _257  and  _260
REMARK   96  A    between atoms: _260  and  _261
REMARK   97  A    between atoms: _265  and  ZN_344
REMARK   98  A    between atoms: _266  and  _268
REMARK   99  A    between atoms: _268  and  _269
REMARK  100  A    between atoms: _268  and  _271
REMARK  101  A    between atoms: _271  and  _272
REMARK  102  A    between atoms: _272  and  _274
REMARK  103  A    between atoms: _274  and  ZN_344
REMARK  104  A    between atoms: _275  and  _277
REMARK  105  A    between atoms: _277  and  _278
REMARK  106  A    between atoms: _277  and  _280
REMARK  107  A    between atoms: _280  and  _281
REMARK  108  A    between atoms: _286  and  _287
REMARK  109  A    between atoms: _289  and  _291
REMARK  110  A    between atoms: _291  and  _292
REMARK  111  A    between atoms: _295  and  _297
REMARK  112  A    between atoms: _297  and  _298
REMARK  113  A    between atoms: _301  and  _303
REMARK  114  A    between atoms: _303  and  _304
REMARK  115  A    between atoms: _303  and  _306
REMARK  116  A    between atoms: _306  and  _307
REMARK  117  A    between atoms: _313  and  _315
REMARK  118  A    between atoms: _315  and  _316
REMARK  119  A    between atoms: _315  and  _318
REMARK  120  A    between atoms: _318  and  _319
REMARK  121  A    between atoms: _324  and  _326
REMARK  122  A    between atoms: _326  and  _327
REMARK  123  A    between atoms: _326  and  _329
REMARK  124  A    between atoms: _329  and  _330
REMARK  125  A    between atoms: _332  and  _334
REMARK  126  A    between atoms: _334  and  _335
REMARK  127  A    between atoms: _334  and  _337
REMARK  128  A    between atoms: _337  and  _338
REMARK  129  A    between atoms: _342  and  ZN_343
REMARK                            x       y       z     vdW  Elec       q    Type
REMARK                         _______ _______ _______ _____ _____    ______ ____
ROOT
ATOM      1  CA  LEU A   1      -5.791  11.077 -15.289  0.00  0.00    +0.133 C 
ENDROOT
BRANCH   1   2
ATOM      2  N   LEU A   1      -6.635  10.609 -16.388  0.00  0.00    -0.239 NA
ATOM      3  H   LEU A   1      -6.280  10.639 -17.365  0.00  0.00    +0.142 HD
ENDBRANCH   1   2
BRANCH   1   4
ATOM      4  C   LEU A   1      -5.213  12.485 -15.469  0.00  0.00    +0.224 C 
ATOM      5  O   LEU A   1      -4.007  12.673 -15.280  0.00  0.00    -0.287 OA
ENDBRANCH   1   4
BRANCH   1   6
ATOM      6  CB  LEU A   1      -4.646  10.089 -15.049  0.00  0.00    +0.025 C 
BRANCH   6   7
ATOM      7  CG  LEU A   1      -5.031   8.612 -14.959  0.00  0.00    +0.002 C 
ATOM      8  CD2 LEU A   1      -4.387   7.969 -13.746  0.00  0.00    +0.000 C 
ATOM      9  CD1 LEU A   1      -4.641   7.879 -16.233  0.00  0.00    +0.000 C 
ENDBRANCH   6   7
ENDBRANCH   1   6
TORSDOF 4
REMARK  Name = ../refined-set-2016/4keq/4keq_pocket.pdb
REMARK  129 active torsions:
REMARK  status: ('A' for Active; 'I' for Inactive)
REMARK    1  A    between atoms: _1  and  _3
REMARK    2  A    between atoms: _3  and  _4
REMARK    3  A    between atoms: _3  and  _6
REMARK    4  A    between atoms: _6  and  _7
REMARK    5  A    between atoms: _10  and  _12
REMARK    6  A    between atoms: _12  and  _13
REMARK    7  A    between atoms: _12  and  _15
REMARK    8  A    between atoms: _18  and  _20
REMARK    9  A    between atoms: _20  and  _21
REMARK   10  A    between atoms: _20  and  _23
REMARK   11  A    between atoms: _23  and  _24
REMARK   12  A    between atoms: _27  and  _29
REMARK   13  A    between atoms: _29  and  _30
REMARK   14  A    between atoms: _29  and  _32
REMARK   15  A    between atoms: _32  and  _33
REMARK   16  A    between atoms: _36  and  _38
REMARK   17  A    between atoms: _38  and  _39
REMARK   18  A    between atoms: _38  and  _41
REMARK   19  A    between atoms: _41  and  _42
REMARK   20  A    between atoms: _47  and  _49
REMARK   21  A    between atoms: _49  and  _50
REMARK   22  A    between atoms: _49  and  _52
REMARK   23  A    between atoms: _52  and  _53
REMARK   24  A    between atoms: _59  and  _61
REMARK   25  A    between atoms: _61  and  _62
REMARK   26  A    between atoms: _61  and  _64
REMARK   27  A    between atoms: _67  and  _69
REMARK   28  A    between atoms: _69  and  _70
REMARK   29  A    between atoms: _69  and  _72
REMARK   30  A    between atoms: _72  and  _73
REMARK   31  A    between atoms: _78  and  _79
REMARK   32  A    between atoms: _81  and  _83
REMARK   33  A    between atoms: _83  and  _84
REMARK   34  A    between atoms: _83  and  _86
REMARK   35  A    between atoms: _89  and  _91
REMARK   36  A    between atoms: _91  and  _92
REMARK   37  A    between atoms: _91  and  _94
REMARK   38  A    between atoms: _94  and  _95
REMARK   39  A    between atoms: _98  and  _100
REMARK   40  A    between atoms: _100  and  _101
REMARK   41  A    between atoms: _100  and  _103
REMARK   42  A    between atoms: _103  and  _104
REMARK   43  A    between atoms: _110  and  _112
REMARK   44  A    between atoms: _112  and  _113
REMARK   45  A    between atoms: _112  and  _115
REMARK   46  A    between atoms: _115  and  _116
REMARK   47  A    between atoms: _116  and  _117
REMARK   48  A    between atoms: _120  and  _122
REMARK   49  A    between atoms: _133  and  _136
REMARK   50  A    between atoms: _136  and  _137
REMARK   51  A    between atoms: _145  and  _146
REMARK   52  A    between atoms: _154  and  _156
REMARK   53  A    between atoms: _156  and  _157
REMARK   54  A    between atoms: _156  and  _159
REMARK   55  A    between atoms: _159  and  _160
REMARK   56  A    between atoms: _166  and  _168
REMARK   57  A    between atoms: _168  and  _169
REMARK   58  A    between atoms: _168  and  _171
REMARK   59  A    between atoms: _171  and  _172
REMARK   60  A    between atoms: _175  and  _177
REMARK   61  A    between atoms: _177  and  _178
REMARK   62  A    between atoms: _177  and  _180
REMARK   63  A    between atoms: _180  and  _181
REMARK   64  A    between atoms: _185  and  ZN_343
REMARK   65  A    between atoms: _186  and  _188
REMARK   66  A    between atoms: _188  and  _189
REMARK   67  A    between atoms: _188  and  _191
REMARK   68  A    between atoms: _191  and  _192
REMARK   69  A    between atoms: _198  and  _200
REMARK   70  A    between atoms: _200  and  _201
REMARK   71  A    between atoms: _200  and  _203
REMARK   72  A    between atoms: _203  and  _204
REMARK   73  A    between atoms: _204  and  _205
REMARK   74  A    between atoms: _208  and  _210
REMARK   75  A    between atoms: _210  and  _211
REMARK   76  A    between atoms: _210  and  _213
REMARK   77  A    between atoms: _213  and  _214
REMARK   78  A    between atoms: _219  and  _221
REMARK   79  A    between atoms: _221  and  _222
REMARK   80  A    between atoms: _221  and  _224
REMARK   81  A    between atoms: _224  and  _225
REMARK   82  A    between atoms: _228  and  _230
REMARK   83  A    between atoms: _230  and  _231
REMARK   84  A    between atoms: _233  and  _235
REMARK   85  A    between atoms: _235  and  _236
REMARK   86  A    between atoms: _235  and  _238
REMARK   87  A    between atoms: _238  and  _239
REMARK   88  A    between atoms: _244  and  _245
REMARK   89  A    between atoms: _247  and  _249
REMARK   90  A    between atoms: _249  and  _250
REMARK   91  A    between atoms: _249  and  _252
REMARK   92  A    between atoms: _252  and  _253
REMARK   93  A    between atoms: _255  and  _257
REMARK   94  A    between atoms: _257  and  _258
REMARK   95  A    between atoms: _257  and  _260
REMARK   96  A    between atoms: _260  and  _261
REMARK   97  A    between atoms: _265  and  ZN_344
REMARK   98  A    between atoms: _266  and  _268
REMARK   99  A    between atoms: _268  and  _269
REMARK  100  A    between atoms: _268  and  _271
REMARK  101  A    between atoms: _271  and  _272
REMARK  102  A    between atoms: _272  and  _274
REMARK  103  A    between atoms: _274  and  ZN_344
REMARK  104  A    between atoms: _275  and  _277
REMARK  105  A    between atoms: _277  and  _278
REMARK  106  A    between atoms: _277  and  _280
REMARK  107  A    between atoms: _280  and  _281
REMARK  108  A    between atoms: _286  and  _287
REMARK  109  A    between atoms: _289  and  _291
REMARK  110  A    between atoms: _291  and  _292
REMARK  111  A    between atoms: _295  and  _297
REMARK  112  A    between atoms: _297  and  _298
REMARK  113  A    between atoms: _301  and  _303
REMARK  114  A    between atoms: _303  and  _304
REMARK  115  A    between atoms: _303  and  _306
REMARK  116  A    between atoms: _306  and  _307
REMARK  117  A    between atoms: _313  and  _315
REMARK  118  A    between atoms: _315  and  _316
REMARK  119  A    between atoms: _315  and  _318
REMARK  120  A    between atoms: _318  and  _319
REMARK  121  A    between atoms: _324  and  _326
REMARK  122  A    between atoms: _326  and  _327
REMARK  123  A    between atoms: _326  and  _329
REMARK  124  A    between atoms: _329  and  _330
REMARK  125  A    between atoms: _332  and  _334
REMARK  126  A    between atoms: _334  and  _335
REMARK  127  A    between atoms: _334  and  _337
REMARK  128  A    between atoms: _337  and  _338
REMARK  129  A    between atoms: _342  and  ZN_343
REMARK                            x       y       z     vdW  Elec       q    Type
REMARK                         _______ _______ _______ _____ _____    ______ ____
ROOT
ATOM      1  C   PHE A   1      -3.057  15.012 -12.458  0.00  0.00    +0.239 C 
ATOM      2  O   PHE A   1      -2.289  15.526 -11.649  0.00  0.00    -0.274 OA
ATOM      3  N   GLU A   2      -2.649  14.107 -13.344  0.00  0.00    -0.298 N 
ATOM      4  H   GLU A   2      -3.345  13.630 -13.952  0.00  0.00    +0.150 HD
ENDROOT
BRANCH   1   5
ATOM      5  CA  PHE A   1      -4.542  15.401 -12.483  0.00  0.00    +0.149 C 
BRANCH   5   6
ATOM      6  N   PHE A   1      -5.193  14.958 -13.705  0.00  0.00    -0.238 NA
ATOM      7  H   PHE A   1      -5.920  14.217 -13.650  0.00  0.00    +0.142 HD
ENDBRANCH   5   6
BRANCH   5   8
ATOM      8  CB  PHE A   1      -5.276  14.836 -11.262  0.00  0.00    +0.053 C 
BRANCH   8   9
ATOM      9  CG  PHE A   1      -5.567  13.367 -11.360  0.00  0.00    -0.020 A 
ATOM     10  CD2 PHE A   1      -4.626  12.431 -10.949  0.00  0.00    -0.004 A 
ATOM     11  CE2 PHE A   1      -4.890  11.074 -11.043  0.00  0.00    -0.000 A 
ATOM     12  CZ  PHE A   1      -6.103  10.644 -11.554  0.00  0.00    -0.000 A 
ATOM     13  CE1 PHE A   1      -7.045  11.572 -11.967  0.00  0.00    -0.000 A 
ATOM     14  CD1 PHE A   1      -6.775  12.920 -11.869  0.00  0.00    -0.004 A 
ENDBRANCH   8   9
ENDBRANCH   5   8
ENDBRANCH   1   5
BRANCH   3  15
ATOM     15  CA  GLU A   2      -1.229  13.778 -13.470  0.00  0.00    +0.137 C 
BRANCH  15  16
ATOM     16  C   GLU A   2      -0.520  14.746 -14.411  0.00  0.00    +0.227 C 
ATOM     17  O   GLU A   2       0.691  14.640 -14.627  0.00  0.00    -0.286 OA
ENDBRANCH  15  16
BRANCH  15  18
ATOM     18  CB  GLU A   2      -1.027  12.329 -13.917  0.00  0.00    +0.039 C 
BRANCH  18  19
ATOM     19  CG  GLU A   2      -1.577  11.337 -12.913  0.00  0.00    +0.116 C 
BRANCH  19  20
ATOM     20  CD  GLU A   2      -0.858  10.004 -12.924  0.00  0.00    +0.365 C 
ATOM     21  OE2 GLU A   2      -0.948   9.299 -11.904  0.00  0.00    -0.246 OA
ATOM     22  OE1 GLU A   2      -0.216   9.656 -13.936  0.00  0.00    -0.246 OA
ENDBRANCH  19  20
ENDBRANCH  18  19
ENDBRANCH  15  18
ENDBRANCH   3  15
TORSDOF 9
REMARK  Name = ../refined-set-2016/4keq/4keq_pocket.pdb
REMARK  129 active torsions:
REMARK  status: ('A' for Active; 'I' for Inactive)
REMARK    1  A    between atoms: _1  and  _3
REMARK    2  A    between atoms: _3  and  _4
REMARK    3  A    between atoms: _3  and  _6
REMARK    4  A    between atoms: _6  and  _7
REMARK    5  A    between atoms: _10  and  _12
REMARK    6  A    between atoms: _12  and  _13
REMARK    7  A    between atoms: _12  and  _15
REMARK    8  A    between atoms: _18  and  _20
REMARK    9  A    between atoms: _20  and  _21
REMARK   10  A    between atoms: _20  and  _23
REMARK   11  A    between atoms: _23  and  _24
REMARK   12  A    between atoms: _27  and  _29
REMARK   13  A    between atoms: _29  and  _30
REMARK   14  A    between atoms: _29  and  _32
REMARK   15  A    between atoms: _32  and  _33
REMARK   16  A    between atoms: _36  and  _38
REMARK   17  A    between atoms: _38  and  _39
REMARK   18  A    between atoms: _38  and  _41
REMARK   19  A    between atoms: _41  and  _42
REMARK   20  A    between atoms: _47  and  _49
REMARK   21  A    between atoms: _49  and  _50
REMARK   22  A    between atoms: _49  and  _52
REMARK   23  A    between atoms: _52  and  _53
REMARK   24  A    between atoms: _59  and  _61
REMARK   25  A    between atoms: _61  and  _62
REMARK   26  A    between atoms: _61  and  _64
REMARK   27  A    between atoms: _67  and  _69
REMARK   28  A    between atoms: _69  and  _70
REMARK   29  A    between atoms: _69  and  _72
REMARK   30  A    between atoms: _72  and  _73
REMARK   31  A    between atoms: _78  and  _79
REMARK   32  A    between atoms: _81  and  _83
REMARK   33  A    between atoms: _83  and  _84
REMARK   34  A    between atoms: _83  and  _86
REMARK   35  A    between atoms: _89  and  _91
REMARK   36  A    between atoms: _91  and  _92
REMARK   37  A    between atoms: _91  and  _94
REMARK   38  A    between atoms: _94  and  _95
REMARK   39  A    between atoms: _98  and  _100
REMARK   40  A    between atoms: _100  and  _101
REMARK   41  A    between atoms: _100  and  _103
REMARK   42  A    between atoms: _103  and  _104
REMARK   43  A    between atoms: _110  and  _112
REMARK   44  A    between atoms: _112  and  _113
REMARK   45  A    between atoms: _112  and  _115
REMARK   46  A    between atoms: _115  and  _116
REMARK   47  A    between atoms: _116  and  _117
REMARK   48  A    between atoms: _120  and  _122
REMARK   49  A    between atoms: _133  and  _136
REMARK   50  A    between atoms: _136  and  _137
REMARK   51  A    between atoms: _145  and  _146
REMARK   52  A    between atoms: _154  and  _156
REMARK   53  A    between atoms: _156  and  _157
REMARK   54  A    between atoms: _156  and  _159
REMARK   55  A    between atoms: _159  and  _160
REMARK   56  A    between atoms: _166  and  _168
REMARK   57  A    between atoms: _168  and  _169
REMARK   58  A    between atoms: _168  and  _171
REMARK   59  A    between atoms: _171  and  _172
REMARK   60  A    between atoms: _175  and  _177
REMARK   61  A    between atoms: _177  and  _178
REMARK   62  A    between atoms: _177  and  _180
REMARK   63  A    between atoms: _180  and  _181
REMARK   64  A    between atoms: _185  and  ZN_343
REMARK   65  A    between atoms: _186  and  _188
REMARK   66  A    between atoms: _188  and  _189
REMARK   67  A    between atoms: _188  and  _191
REMARK   68  A    between atoms: _191  and  _192
REMARK   69  A    between atoms: _198  and  _200
REMARK   70  A    between atoms: _200  and  _201
REMARK   71  A    between atoms: _200  and  _203
REMARK   72  A    between atoms: _203  and  _204
REMARK   73  A    between atoms: _204  and  _205
REMARK   74  A    between atoms: _208  and  _210
REMARK   75  A    between atoms: _210  and  _211
REMARK   76  A    between atoms: _210  and  _213
REMARK   77  A    between atoms: _213  and  _214
REMARK   78  A    between atoms: _219  and  _221
REMARK   79  A    between atoms: _221  and  _222
REMARK   80  A    between atoms: _221  and  _224
REMARK   81  A    between atoms: _224  and  _225
REMARK   82  A    between atoms: _228  and  _230
REMARK   83  A    between atoms: _230  and  _231
REMARK   84  A    between atoms: _233  and  _235
REMARK   85  A    between atoms: _235  and  _236
REMARK   86  A    between atoms: _235  and  _238
REMARK   87  A    between atoms: _238  and  _239
REMARK   88  A    between atoms: _244  and  _245
REMARK   89  A    between atoms: _247  and  _249
REMARK   90  A    between atoms: _249  and  _250
REMARK   91  A    between atoms: _249  and  _252
REMARK   92  A    between atoms: _252  and  _253
REMARK   93  A    between atoms: _255  and  _257
REMARK   94  A    between atoms: _257  and  _258
REMARK   95  A    between atoms: _257  and  _260
REMARK   96  A    between atoms: _260  and  _261
REMARK   97  A    between atoms: _265  and  ZN_344
REMARK   98  A    between atoms: _266  and  _268
REMARK   99  A    between atoms: _268  and  _269
REMARK  100  A    between atoms: _268  and  _271
REMARK  101  A    between atoms: _271  and  _272
REMARK  102  A    between atoms: _272  and  _274
REMARK  103  A    between atoms: _274  and  ZN_344
REMARK  104  A    between atoms: _275  and  _277
REMARK  105  A    between atoms: _277  and  _278
REMARK  106  A    between atoms: _277  and  _280
REMARK  107  A    between atoms: _280  and  _281
REMARK  108  A    between atoms: _286  and  _287
REMARK  109  A    between atoms: _289  and  _291
REMARK  110  A    between atoms: _291  and  _292
REMARK  111  A    between atoms: _295  and  _297
REMARK  112  A    between atoms: _297  and  _298
REMARK  113  A    between atoms: _301  and  _303
REMARK  114  A    between atoms: _303  and  _304
REMARK  115  A    between atoms: _303  and  _306
REMARK  116  A    between atoms: _306  and  _307
REMARK  117  A    between atoms: _313  and  _315
REMARK  118  A    between atoms: _315  and  _316
REMARK  119  A    between atoms: _315  and  _318
REMARK  120  A    between atoms: _318  and  _319
REMARK  121  A    between atoms: _324  and  _326
REMARK  122  A    between atoms: _326  and  _327
REMARK  123  A    between atoms: _326  and  _329
REMARK  124  A    between atoms: _329  and  _330
REMARK  125  A    between atoms: _332  and  _334
REMARK  126  A    between atoms: _334  and  _335
REMARK  127  A    between atoms: _334  and  _337
REMARK  128  A    between atoms: _337  and  _338
REMARK  129  A    between atoms: _342  and  ZN_343
REMARK                            x       y       z     vdW  Elec       q    Type
REMARK                         _______ _______ _______ _____ _____    ______ ____
ROOT
ATOM      1  C   UNK A   1       3.466  -4.829 -16.652  0.00  0.00    +0.000 C 
ATOM      2  C   UNK A   1       3.483  -4.506 -15.152  0.00  0.00    +0.000 C 
ATOM      3  C   UNK A   1       3.828  -3.082 -14.827  0.00  0.00    +0.000 A 
ATOM      4  C   UNK A   1       3.223  -2.186 -14.010  0.00  0.00    +0.000 A 
ATOM      5  N   UNK A   1       3.965  -1.031 -14.052  0.00  0.00    +0.000 N 
ATOM      6 ZN   UNK A   1       3.467   0.553 -12.571  0.00  0.00    +0.000 Zn
ATOM      7  N   UNK A   1       1.408  -0.067 -12.342  0.00  0.00    +0.000 N 
ATOM      8  C   UNK A   1       0.902  -0.775 -11.347  0.00  0.00    +0.000 A 
ATOM      9  N   UNK A   1      -0.180  -1.394 -11.784  0.00  0.00    +0.000 NA
ATOM     10  C   UNK A   1      -0.377  -1.068 -13.104  0.00  0.00    +0.000 A 
ATOM     11  C   UNK A   1       0.624  -0.229 -13.464  0.00  0.00    +0.000 A 
ATOM     12  C   UNK A   1       0.918   0.443 -14.771  0.00  0.00    +0.000 C 
ATOM     13  C   UNK A   3       0.026  -0.043 -15.917  0.00  0.00    +0.000 C 
ATOM     14  N   UNK A   3       0.397  -1.380 -16.343  0.00  0.00    +0.000 N 
ATOM     15  H   UNK A   3       1.248  -1.839 -15.959  0.00  0.00    +0.000 HD
ATOM     16  C   UNK A   2      -0.365  -2.008 -17.229  0.00  0.00    +0.000 C 
ATOM     17  O   UNK A   2      -1.508  -1.631 -17.508  0.00  0.00    +0.000 OA
ATOM     18  C   UNK A   2       0.238  -3.228 -17.913  0.00  0.00    +0.000 C 
ATOM     19  N   UNK A   2       1.207  -3.997 -17.130  0.00  0.00    +0.000 N 
ATOM     20  H   UNK A   2       0.878  -4.616 -16.362  0.00  0.00    +0.000 HD
ATOM     21  O   UNK A   1       3.090   2.480 -13.344  0.00  0.00    +0.000 OA
ATOM     22  C   UNK A   1       4.993  -1.211 -14.863  0.00  0.00    +0.000 A 
ATOM     23  N   UNK A   1       4.938  -2.440 -15.341  0.00  0.00    +0.000 NA
ATOM     24  C   UNK A   1       2.507  -3.906 -17.399  0.00  0.00    +0.000 C 
ATOM     25  O   UNK A   1       2.952  -3.107 -18.221  0.00  0.00    +0.000 OA
ENDROOT
BRANCH   6  26
ATOM     26  N   UNK A   1       3.985  -0.149 -10.631  0.00  0.00    +0.000 N 
ATOM     27  C   UNK A   1       3.944   0.454  -9.457  0.00  0.00    +0.000 A 
ATOM     28  N   UNK A   1       4.414  -0.378  -8.546  0.00  0.00    +0.000 NA
ATOM     29  C   UNK A   1       4.775  -1.563  -9.150  0.00  0.00    +0.000 A 
ATOM     30  C   UNK A   1       4.492  -1.415 -10.465  0.00  0.00    +0.000 A 
BRANCH  29  31
ATOM     31  C   UNK A   1       5.336  -2.724  -8.386  0.00  0.00    +0.000 C 
BRANCH  31  32
ATOM     32  C   UNK A   1       4.294  -3.467  -7.542  0.00  0.00    +0.000 C 
BRANCH  32  33
ATOM     33  N   UNK A   1       4.880  -4.663  -6.937  0.00  0.00    +0.000 NA
ATOM     34  H   UNK A   1       5.893  -4.849  -7.079  0.00  0.00    +0.000 HD
ENDBRANCH  32  33
BRANCH  32  35
ATOM     35  C   UNK A   1       3.105  -3.849  -8.414  0.00  0.00    +0.000 C 
ATOM     36  O   UNK A   1       2.070  -3.179  -8.403  0.00  0.00    +0.000 OA
ENDBRANCH  32  35
ENDBRANCH  31  32
ENDBRANCH  29  31
ENDBRANCH   6  26
BRANCH  13  37
ATOM     37  C   UNK A   3       0.085   0.862 -17.150  0.00  0.00    +0.000 C 
ATOM     38  N   PHE A   4      -0.806   1.848 -17.191  0.00  0.00    +0.000 N 
ATOM     39  H   PHE A   4      -1.371   2.040 -16.339  0.00  0.00    +0.000 HD
ATOM     40  O   UNK A   3       0.905   0.645 -18.050  0.00  0.00    +0.000 OA
BRANCH  38  41
ATOM     41  CA  PHE A   4      -1.030   2.678 -18.378  0.00  0.00    +0.000 C 
BRANCH  41  42
ATOM     42  C   PHE A   4       0.212   3.406 -18.909  0.00  0.00    +0.000 C 
ATOM     43  N   ASP A   5       1.117   3.796 -18.018  0.00  0.00    +0.000 N 
ATOM     44  H   ASP A   5       0.968   3.595 -17.009  0.00  0.00    +0.000 HD
ATOM     45  O   PHE A   4       0.344   3.622 -20.113  0.00  0.00    +0.000 OA
BRANCH  43  46
ATOM     46  CA  ASP A   5       2.319   4.505 -18.446  0.00  0.00    +0.000 C 
BRANCH  46  47
ATOM     47  C   ASP A   5       3.414   3.567 -18.948  0.00  0.00    +0.000 C 
ATOM     48  N   UNK A   6       3.105   2.278 -19.047  0.00  0.00    +0.000 N 
ATOM     49  H   UNK A   6       2.171   1.945 -18.733  0.00  0.00    +0.000 HD
ATOM     50  O   ASP A   5       4.519   4.006 -19.259  0.00  0.00    +0.000 OA
BRANCH  48  51
ATOM     51  C   UNK A   6       4.069   1.326 -19.595  0.00  0.00    +0.000 C 
BRANCH  51  52
ATOM     52  C   UNK A   6       3.539   0.526 -20.791  0.00  0.00    +0.000 C 
ATOM     53  O   UNK A   6       4.242  -0.316 -21.350  0.00  0.00    +0.000 OA
ENDBRANCH  51  52
BRANCH  51  54
ATOM     54  C   UNK A   6       4.609   0.415 -18.489  0.00  0.00    +0.000 C 
BRANCH  54  55
ATOM     55  C   UNK A   6       5.427   1.142 -17.465  0.00  0.00    +0.000 A 
ATOM     56  C   UNK A   6       5.064   1.830 -16.356  0.00  0.00    +0.000 A 
ATOM     57  N   UNK A   6       6.217   2.313 -15.787  0.00  0.00    +0.000 N 
ATOM     58  C   UNK A   6       7.248   1.940 -16.521  0.00  0.00    +0.000 A 
ATOM     59  N   UNK A   6       6.800   1.237 -17.543  0.00  0.00    +0.000 NA
BRANCH  57  60
ATOM     60 ZN   UNK A   6       5.825   3.337 -14.029  0.00  0.00    +0.000 Zn
BRANCH  60  61
ATOM     61  N   UNK A   6       7.411   4.755 -13.916  0.00  0.00    +0.000 N 
ATOM     62  C   UNK A   6       7.982   5.234 -12.762  0.00  0.00    +0.000 A 
ATOM     63  C   UNK A   6       8.611   6.391 -13.077  0.00  0.00    +0.000 A 
ATOM     64  N   UNK A   6       8.401   6.585 -14.425  0.00  0.00    +0.000 NA
ATOM     65  C   UNK A   6       7.675   5.591 -14.904  0.00  0.00    +0.000 A 
BRANCH  63  66
ATOM     66  C   UNK A   6       9.398   7.346 -12.237  0.00  0.00    +0.000 C 
BRANCH  66  67
ATOM     67  C   UNK A   6      10.805   7.621 -12.773  0.00  0.00    +0.000 C 
BRANCH  67  68
ATOM     68  N   UNK A   6      11.522   6.362 -12.944  0.00  0.00    +0.000 N 
ATOM     69  H   UNK A   2      11.972   5.913 -12.120  0.00  0.00    +0.000 HD
ATOM     70  C   UNK A   1      11.610   5.779 -14.136  0.00  0.00    +0.000 C 
ATOM     71  O   UNK A   1      11.281   6.341 -15.183  0.00  0.00    +0.000 OA
BRANCH  70  72
ATOM     72  C   UNK A   1      12.122   4.342 -14.160  0.00  0.00    +0.000 C 
BRANCH  72  73
ATOM     73  N   UNK A   1      13.227   4.078 -13.243  0.00  0.00    +0.000 NA
ATOM     74  H   UNK A   1      13.038   3.556 -12.364  0.00  0.00    +0.000 HD
ENDBRANCH  72  73
BRANCH  72  75
ATOM     75  C   UNK A   1      10.958   3.404 -13.845  0.00  0.00    +0.000 C 
BRANCH  75  76
ATOM     76  O   UNK A   1      10.569   3.537 -12.487  0.00  0.00    +0.000 OA
ATOM     77  H   UNK A   1       9.815   2.924 -12.299  0.00  0.00    +0.000 HD
ENDBRANCH  75  76
ENDBRANCH  72  75
ENDBRANCH  70  72
ENDBRANCH  67  68
BRANCH  67  78
ATOM     78  C   UNK A   6      11.541   8.563 -11.831  0.00  0.00    +0.000 C 
ATOM     79  O   UNK A   2      10.978   9.035 -10.845  0.00  0.00    +0.000 OA
ENDBRANCH  67  78
ENDBRANCH  66  67
ENDBRANCH  63  66
ENDBRANCH  60  61
ENDBRANCH  57  60
ENDBRANCH  54  55
ENDBRANCH  51  54
ENDBRANCH  48  51
ENDBRANCH  46  47
BRANCH  46  80
ATOM     80  CB  ASP A   5       2.849   5.423 -17.337  0.00  0.00    +0.000 C 
BRANCH  80  81
ATOM     81  CG  ASP A   5       3.198   4.669 -16.071  0.00  0.00    +0.000 C 
ATOM     82  OD2 ASP A   5       4.116   5.110 -15.345  0.00  0.00    +0.000 OA
ATOM     83  OD1 ASP A   5       2.554   3.638 -15.798  0.00  0.00    +0.000 OA
ENDBRANCH  80  81
ENDBRANCH  46  80
ENDBRANCH  43  46
ENDBRANCH  41  42
BRANCH  41  84
ATOM     84  CB  PHE A   4      -2.141   3.701 -18.094  0.00  0.00    +0.000 C 
BRANCH  84  85
ATOM     85  CG  PHE A   4      -1.741   4.770 -17.119  0.00  0.00    +0.000 A 
ATOM     86  CD2 PHE A   4      -1.854   4.560 -15.757  0.00  0.00    +0.000 A 
ATOM     87  CE2 PHE A   4      -1.476   5.542 -14.856  0.00  0.00    +0.000 A 
ATOM     88  CZ  PHE A   4      -0.974   6.740 -15.315  0.00  0.00    +0.000 A 
ATOM     89  CE1 PHE A   4      -0.855   6.962 -16.675  0.00  0.00    +0.000 A 
ATOM     90  CD1 PHE A   4      -1.238   5.983 -17.567  0.00  0.00    +0.000 A 
ENDBRANCH  84  85
ENDBRANCH  41  84
ENDBRANCH  38  41
ENDBRANCH  13  37
BRANCH   1  91
ATOM     91  N   UNK A   1       4.769  -4.640 -17.280  0.00  0.00    +0.000 NA
ATOM     92  H   UNK A   1       4.868  -3.900 -18.004  0.00  0.00    +0.000 HD
ENDBRANCH   1  91
BRANCH   6  93
ATOM     93  O   UNK A   1       5.412   1.365 -12.782  0.00  0.00    +0.000 OA
BRANCH  93  94
ATOM     94  C   UNK A   1       6.635   1.191 -12.613  0.00  0.00    +0.000 C 
ATOM     95  O   UNK A   1       7.501   1.945 -13.112  0.00  0.00    +0.000 OA
BRANCH  94  96
ATOM     96  C   UNK A   1       7.070   0.000 -11.773  0.00  0.00    +0.000 C 
BRANCH  96  97
ATOM     97  C   UNK A   1       8.559   0.024 -11.436  0.00  0.00    +0.000 C 
BRANCH  97  98
ATOM     98  C   UNK A   1       8.840  -0.703 -10.120  0.00  0.00    +0.000 C 
ATOM     99  O   UNK A   1       8.165  -0.460  -9.123  0.00  0.00    +0.000 OA
ENDBRANCH  97  98
BRANCH  97 100
ATOM    100  N   UNK A   1       9.362  -0.431 -12.569  0.00  0.00    +0.000 NA
ATOM    101  H   UNK A   1       9.011  -1.180 -13.199  0.00  0.00    +0.000 HD
ENDBRANCH  97 100
ENDBRANCH  96  97
ENDBRANCH  94  96
ENDBRANCH  93  94
ENDBRANCH   6  93
BRANCH  18 102
ATOM    102  C   UNK A   2      -0.878  -4.121 -18.460  0.00  0.00    +0.000 C 
BRANCH 102 103
ATOM    103  C   UNK A   2      -0.399  -5.141 -19.436  0.00  0.00    +0.000 A 
ATOM    104  C   UNK A   2      -0.585  -6.489 -19.191  0.00  0.00    +0.000 A 
ATOM    105  C   UNK A   2      -0.139  -7.439 -20.095  0.00  0.00    +0.000 A 
ATOM    106  C   UNK A   2       0.500  -7.044 -21.259  0.00  0.00    +0.000 A 
ATOM    107  C   UNK A   2       0.694  -5.699 -21.514  0.00  0.00    +0.000 A 
ATOM    108  C   UNK A   2       0.241  -4.753 -20.604  0.00  0.00    +0.000 A 
ENDBRANCH 102 103
ENDBRANCH  18 102
TORSDOF 37
REMARK  Name = ../refined-set-2016/4keq/4keq_pocket.pdb
REMARK  129 active torsions:
REMARK  status: ('A' for Active; 'I' for Inactive)
REMARK    1  A    between atoms: _1  and  _3
REMARK    2  A    between atoms: _3  and  _4
REMARK    3  A    between atoms: _3  and  _6
REMARK    4  A    between atoms: _6  and  _7
REMARK    5  A    between atoms: _10  and  _12
REMARK    6  A    between atoms: _12  and  _13
REMARK    7  A    between atoms: _12  and  _15
REMARK    8  A    between atoms: _18  and  _20
REMARK    9  A    between atoms: _20  and  _21
REMARK   10  A    between atoms: _20  and  _23
REMARK   11  A    between atoms: _23  and  _24
REMARK   12  A    between atoms: _27  and  _29
REMARK   13  A    between atoms: _29  and  _30
REMARK   14  A    between atoms: _29  and  _32
REMARK   15  A    between atoms: _32  and  _33
REMARK   16  A    between atoms: _36  and  _38
REMARK   17  A    between atoms: _38  and  _39
REMARK   18  A    between atoms: _38  and  _41
REMARK   19  A    between atoms: _41  and  _42
REMARK   20  A    between atoms: _47  and  _49
REMARK   21  A    between atoms: _49  and  _50
REMARK   22  A    between atoms: _49  and  _52
REMARK   23  A    between atoms: _52  and  _53
REMARK   24  A    between atoms: _59  and  _61
REMARK   25  A    between atoms: _61  and  _62
REMARK   26  A    between atoms: _61  and  _64
REMARK   27  A    between atoms: _67  and  _69
REMARK   28  A    between atoms: _69  and  _70
REMARK   29  A    between atoms: _69  and  _72
REMARK   30  A    between atoms: _72  and  _73
REMARK   31  A    between atoms: _78  and  _79
REMARK   32  A    between atoms: _81  and  _83
REMARK   33  A    between atoms: _83  and  _84
REMARK   34  A    between atoms: _83  and  _86
REMARK   35  A    between atoms: _89  and  _91
REMARK   36  A    between atoms: _91  and  _92
REMARK   37  A    between atoms: _91  and  _94
REMARK   38  A    between atoms: _94  and  _95
REMARK   39  A    between atoms: _98  and  _100
REMARK   40  A    between atoms: _100  and  _101
REMARK   41  A    between atoms: _100  and  _103
REMARK   42  A    between atoms: _103  and  _104
REMARK   43  A    between atoms: _110  and  _112
REMARK   44  A    between atoms: _112  and  _113
REMARK   45  A    between atoms: _112  and  _115
REMARK   46  A    between atoms: _115  and  _116
REMARK   47  A    between atoms: _116  and  _117
REMARK   48  A    between atoms: _120  and  _122
REMARK   49  A    between atoms: _133  and  _136
REMARK   50  A    between atoms: _136  and  _137
REMARK   51  A    between atoms: _145  and  _146
REMARK   52  A    between atoms: _154  and  _156
REMARK   53  A    between atoms: _156  and  _157
REMARK   54  A    between atoms: _156  and  _159
REMARK   55  A    between atoms: _159  and  _160
REMARK   56  A    between atoms: _166  and  _168
REMARK   57  A    between atoms: _168  and  _169
REMARK   58  A    between atoms: _168  and  _171
REMARK   59  A    between atoms: _171  and  _172
REMARK   60  A    between atoms: _175  and  _177
REMARK   61  A    between atoms: _177  and  _178
REMARK   62  A    between atoms: _177  and  _180
REMARK   63  A    between atoms: _180  and  _181
REMARK   64  A    between atoms: _185  and  ZN_343
REMARK   65  A    between atoms: _186  and  _188
REMARK   66  A    between atoms: _188  and  _189
REMARK   67  A    between atoms: _188  and  _191
REMARK   68  A    between atoms: _191  and  _192
REMARK   69  A    between atoms: _198  and  _200
REMARK   70  A    between atoms: _200  and  _201
REMARK   71  A    between atoms: _200  and  _203
REMARK   72  A    between atoms: _203  and  _204
REMARK   73  A    between atoms: _204  and  _205
REMARK   74  A    between atoms: _208  and  _210
REMARK   75  A    between atoms: _210  and  _211
REMARK   76  A    between atoms: _210  and  _213
REMARK   77  A    between atoms: _213  and  _214
REMARK   78  A    between atoms: _219  and  _221
REMARK   79  A    between atoms: _221  and  _222
REMARK   80  A    between atoms: _221  and  _224
REMARK   81  A    between atoms: _224  and  _225
REMARK   82  A    between atoms: _228  and  _230
REMARK   83  A    between atoms: _230  and  _231
REMARK   84  A    between atoms: _233  and  _235
REMARK   85  A    between atoms: _235  and  _236
REMARK   86  A    between atoms: _235  and  _238
REMARK   87  A    between atoms: _238  and  _239
REMARK   88  A    between atoms: _244  and  _245
REMARK   89  A    between atoms: _247  and  _249
REMARK   90  A    between atoms: _249  and  _250
REMARK   91  A    between atoms: _249  and  _252
REMARK   92  A    between atoms: _252  and  _253
REMARK   93  A    between atoms: _255  and  _257
REMARK   94  A    between atoms: _257  and  _258
REMARK   95  A    between atoms: _257  and  _260
REMARK   96  A    between atoms: _260  and  _261
REMARK   97  A    between atoms: _265  and  ZN_344
REMARK   98  A    between atoms: _266  and  _268
REMARK   99  A    between atoms: _268  and  _269
REMARK  100  A    between atoms: _268  and  _271
REMARK  101  A    between atoms: _271  and  _272
REMARK  102  A    between atoms: _272  and  _274
REMARK  103  A    between atoms: _274  and  ZN_344
REMARK  104  A    between atoms: _275  and  _277
REMARK  105  A    between atoms: _277  and  _278
REMARK  106  A    between atoms: _277  and  _280
REMARK  107  A    between atoms: _280  and  _281
REMARK  108  A    between atoms: _286  and  _287
REMARK  109  A    between atoms: _289  and  _291
REMARK  110  A    between atoms: _291  and  _292
REMARK  111  A    between atoms: _295  and  _297
REMARK  112  A    between atoms: _297  and  _298
REMARK  113  A    between atoms: _301  and  _303
REMARK  114  A    between atoms: _303  and  _304
REMARK  115  A    between atoms: _303  and  _306
REMARK  116  A    between atoms: _306  and  _307
REMARK  117  A    between atoms: _313  and  _315
REMARK  118  A    between atoms: _315  and  _316
REMARK  119  A    between atoms: _315  and  _318
REMARK  120  A    between atoms: _318  and  _319
REMARK  121  A    between atoms: _324  and  _326
REMARK  122  A    between atoms: _326  and  _327
REMARK  123  A    between atoms: _326  and  _329
REMARK  124  A    between atoms: _329  and  _330
REMARK  125  A    between atoms: _332  and  _334
REMARK  126  A    between atoms: _334  and  _335
REMARK  127  A    between atoms: _334  and  _337
REMARK  128  A    between atoms: _337  and  _338
REMARK  129  A    between atoms: _342  and  ZN_343
REMARK                            x       y       z     vdW  Elec       q    Type
REMARK                         _______ _______ _______ _____ _____    ______ ____
ROOT
ATOM      1  C   HIS A   3      -7.812   1.007 -12.699  0.00  0.00    +0.000 C 
ATOM      2  N   LEU A   4      -7.292   1.937 -11.910  0.00  0.00    +0.000 N 
ATOM      3  H   LEU A   4      -7.313   1.787 -10.881  0.00  0.00    +0.000 HD
ATOM      4  O   HIS A   3      -7.772   1.056 -13.931  0.00  0.00    +0.000 OA
ENDROOT
BRANCH   2   5
ATOM      5  CA  LEU A   4      -6.693   3.161 -12.425  0.00  0.00    +0.000 C 
BRANCH   5   6
ATOM      6  C   LEU A   4      -5.325   2.899 -13.048  0.00  0.00    +0.000 C 
ATOM      7  N   GLY A   5      -4.542   2.031 -12.417  0.00  0.00    +0.000 N 
ATOM      8  H   GLY A   5      -4.840   1.657 -11.493  0.00  0.00    +0.000 HD
ATOM      9  O   LEU A   4      -4.982   3.475 -14.077  0.00  0.00    +0.000 OA
BRANCH   7  10
ATOM     10  CA  GLY A   5      -3.279   1.591 -12.987  0.00  0.00    +0.000 C 
BRANCH  10  11
ATOM     11  C   GLY A   5      -3.504   0.867 -14.299  0.00  0.00    +0.000 C 
ATOM     12  N   TYR A   6      -4.433  -0.077 -14.284  0.00  0.00    +0.000 N 
ATOM     13  H   TYR A   6      -4.901  -0.320 -13.387  0.00  0.00    +0.000 HD
ATOM     14  O   GLY A   5      -2.869   1.159 -15.311  0.00  0.00    +0.000 OA
BRANCH  12  15
ATOM     15  CA  TYR A   6      -4.811  -0.781 -15.501  0.00  0.00    +0.000 C 
BRANCH  15  16
ATOM     16  C   TYR A   6      -5.980  -0.078 -16.179  0.00  0.00    +0.000 C 
ATOM     17  O   TYR A   6      -7.061  -0.654 -16.320  0.00  0.00    +0.000 OA
ATOM     18  N   SER A   7      -5.768   1.164 -16.607  0.00  0.00    +0.000 N 
ATOM     19  H   SER A   7      -4.816   1.577 -16.538  0.00  0.00    +0.000 HD
BRANCH  18  20
ATOM     20  CA  SER A   7      -6.863   1.955 -17.174  0.00  0.00    +0.000 C 
BRANCH  20  21
ATOM     21  C   SER A   7      -6.821   2.090 -18.698  0.00  0.00    +0.000 C 
ATOM     22  O   SER A   7      -7.816   2.480 -19.312  0.00  0.00    +0.000 OA
ENDBRANCH  20  21
BRANCH  20  23
ATOM     23  CB  SER A   7      -6.945   3.337 -16.513  0.00  0.00    +0.000 C 
BRANCH  23  24
ATOM     24  OG  SER A   7      -5.723   4.046 -16.643  0.00  0.00    +0.000 OA
ATOM     25  H   SER A   7      -5.514   4.168 -17.603  0.00  0.00    +0.000 HD
ENDBRANCH  23  24
ENDBRANCH  20  23
ENDBRANCH  18  20
ENDBRANCH  15  16
BRANCH  15  26
ATOM     26  CB  TYR A   6      -5.185  -2.234 -15.193  0.00  0.00    +0.000 C 
BRANCH  26  27
ATOM     27  CG  TYR A   6      -4.045  -3.079 -14.671  0.00  0.00    +0.000 A 
ATOM     28  CD2 TYR A   6      -3.806  -3.190 -13.306  0.00  0.00    +0.000 A 
ATOM     29  CE2 TYR A   6      -2.767  -3.962 -12.821  0.00  0.00    +0.000 A 
ATOM     30  CZ  TYR A   6      -1.957  -4.637 -13.702  0.00  0.00    +0.000 A 
ATOM     31  CE1 TYR A   6      -2.172  -4.548 -15.066  0.00  0.00    +0.000 A 
ATOM     32  CD1 TYR A   6      -3.212  -3.773 -15.542  0.00  0.00    +0.000 A 
BRANCH  30  33
ATOM     33  OH  TYR A   6      -0.928  -5.411 -13.223  0.00  0.00    +0.000 OA
ATOM     34  HH  TYR A   6      -0.446  -5.825 -13.983  0.00  0.00    +0.000 HD
ENDBRANCH  30  33
ENDBRANCH  26  27
ENDBRANCH  15  26
ENDBRANCH  12  15
ENDBRANCH  10  11
ENDBRANCH   7  10
ENDBRANCH   5   6
BRANCH   5  35
ATOM     35  CB  LEU A   4      -6.573   4.176 -11.290  0.00  0.00    +0.000 C 
BRANCH  35  36
ATOM     36  CG  LEU A   4      -6.200   5.621 -11.589  0.00  0.00    +0.000 C 
ATOM     37  CD2 LEU A   4      -5.759   6.281 -10.292  0.00  0.00    +0.000 C 
ATOM     38  CD1 LEU A   4      -7.377   6.361 -12.224  0.00  0.00    +0.000 C 
ENDBRANCH  35  36
ENDBRANCH   5  35
ENDBRANCH   2   5
BRANCH   1  39
ATOM     39  CA  HIS A   3      -8.476  -0.156 -11.984  0.00  0.00    +0.000 C 
BRANCH  39  41
ATOM     40  C   GLU A   2      -6.457  -0.872 -10.783  0.00  0.00    +0.000 C 
ATOM     41  N   HIS A   3      -7.757  -0.591 -10.782  0.00  0.00    +0.000 N 
ATOM     42  H   HIS A   3      -8.286  -0.684  -9.891  0.00  0.00    +0.000 HD
ATOM     43  O   GLU A   2      -5.742  -0.730 -11.774  0.00  0.00    +0.000 OA
BRANCH  40  44
ATOM     44  CA  GLU A   2      -5.861  -1.398  -9.477  0.00  0.00    +0.000 C 
BRANCH  44  47
ATOM     45  C   PHE A   1      -6.594  -0.504  -7.324  0.00  0.00    +0.000 C 
ATOM     46  O   PHE A   1      -5.674   0.308  -7.290  0.00  0.00    +0.000 OA
ATOM     47  N   GLU A   2      -6.778  -1.347  -8.337  0.00  0.00    +0.000 N 
ATOM     48  H   GLU A   2      -7.597  -1.988  -8.318  0.00  0.00    +0.000 HD
BRANCH  45  49
ATOM     49  CA  PHE A   1      -7.596  -0.591  -6.173  0.00  0.00    +0.000 C 
BRANCH  49  50
ATOM     50  N   PHE A   1      -8.523  -1.703  -6.348  0.00  0.00    +0.000 NA
ATOM     51  H   PHE A   1      -8.268  -2.651  -6.005  0.00  0.00    +0.000 HD
ENDBRANCH  49  50
BRANCH  49  52
ATOM     52  CB  PHE A   1      -6.869  -0.684  -4.819  0.00  0.00    +0.000 C 
BRANCH  52  53
ATOM     53  CG  PHE A   1      -6.194  -2.011  -4.572  0.00  0.00    +0.000 A 
ATOM     54  CD2 PHE A   1      -6.793  -2.965  -3.767  0.00  0.00    +0.000 A 
ATOM     55  CE2 PHE A   1      -6.174  -4.199  -3.534  0.00  0.00    +0.000 A 
ATOM     56  CZ  PHE A   1      -4.947  -4.476  -4.114  0.00  0.00    +0.000 A 
ATOM     57  CE1 PHE A   1      -4.334  -3.525  -4.919  0.00  0.00    +0.000 A 
ATOM     58  CD1 PHE A   1      -4.961  -2.303  -5.146  0.00  0.00    +0.000 A 
ENDBRANCH  52  53
ENDBRANCH  49  52
ENDBRANCH  45  49
ENDBRANCH  44  47
BRANCH  44  59
ATOM     59  CB  GLU A   2      -5.382  -2.827  -9.716  0.00  0.00    +0.000 C 
BRANCH  59  60
ATOM     60  CG  GLU A   2      -4.572  -3.432  -8.607  0.00  0.00    +0.000 C 
BRANCH  60  61
ATOM     61  CD  GLU A   2      -4.003  -4.765  -9.025  0.00  0.00    +0.000 C 
ATOM     62  OE2 GLU A   2      -2.760  -4.878  -9.098  0.00  0.00    +0.000 OA
ATOM     63  OE1 GLU A   2      -4.802  -5.690  -9.301  0.00  0.00    +0.000 OA
ENDBRANCH  60  61
ENDBRANCH  59  60
ENDBRANCH  44  59
ENDBRANCH  40  44
ENDBRANCH  39  41
BRANCH  39  64
ATOM     64  CB  HIS A   3      -9.919   0.222 -11.634  0.00  0.00    +0.000 C 
BRANCH  64  65
ATOM     65  CG  HIS A   3     -10.879  -0.922 -11.740  0.00  0.00    +0.000 A 
ATOM     66  ND1 HIS A   3     -11.109  -1.798 -10.700  0.00  0.00    +0.000 NA
ATOM     67  CE1 HIS A   3     -11.986  -2.708 -11.080  0.00  0.00    +0.000 A 
ATOM     68  NE2 HIS A   3     -12.332  -2.456 -12.329  0.00  0.00    +0.000 NA
ATOM     69  CD2 HIS A   3     -11.649  -1.346 -12.767  0.00  0.00    +0.000 A 
ENDBRANCH  64  65
ENDBRANCH  39  64
ENDBRANCH   1  39
TORSDOF 28
REMARK  Name = ../refined-set-2016/4keq/4keq_pocket.pdb
REMARK  129 active torsions:
REMARK  status: ('A' for Active; 'I' for Inactive)
REMARK    1  A    between atoms: _1  and  _3
REMARK    2  A    between atoms: _3  and  _4
REMARK    3  A    between atoms: _3  and  _6
REMARK    4  A    between atoms: _6  and  _7
REMARK    5  A    between atoms: _10  and  _12
REMARK    6  A    between atoms: _12  and  _13
REMARK    7  A    between atoms: _12  and  _15
REMARK    8  A    between atoms: _18  and  _20
REMARK    9  A    between atoms: _20  and  _21
REMARK   10  A    between atoms: _20  and  _23
REMARK   11  A    between atoms: _23  and  _24
REMARK   12  A    between atoms: _27  and  _29
REMARK   13  A    between atoms: _29  and  _30
REMARK   14  A    between atoms: _29  and  _32
REMARK   15  A    between atoms: _32  and  _33
REMARK   16  A    between atoms: _36  and  _38
REMARK   17  A    between atoms: _38  and  _39
REMARK   18  A    between atoms: _38  and  _41
REMARK   19  A    between atoms: _41  and  _42
REMARK   20  A    between atoms: _47  and  _49
REMARK   21  A    between atoms: _49  and  _50
REMARK   22  A    between atoms: _49  and  _52
REMARK   23  A    between atoms: _52  and  _53
REMARK   24  A    between atoms: _59  and  _61
REMARK   25  A    between atoms: _61  and  _62
REMARK   26  A    between atoms: _61  and  _64
REMARK   27  A    between atoms: _67  and  _69
REMARK   28  A    between atoms: _69  and  _70
REMARK   29  A    between atoms: _69  and  _72
REMARK   30  A    between atoms: _72  and  _73
REMARK   31  A    between atoms: _78  and  _79
REMARK   32  A    between atoms: _81  and  _83
REMARK   33  A    between atoms: _83  and  _84
REMARK   34  A    between atoms: _83  and  _86
REMARK   35  A    between atoms: _89  and  _91
REMARK   36  A    between atoms: _91  and  _92
REMARK   37  A    between atoms: _91  and  _94
REMARK   38  A    between atoms: _94  and  _95
REMARK   39  A    between atoms: _98  and  _100
REMARK   40  A    between atoms: _100  and  _101
REMARK   41  A    between atoms: _100  and  _103
REMARK   42  A    between atoms: _103  and  _104
REMARK   43  A    between atoms: _110  and  _112
REMARK   44  A    between atoms: _112  and  _113
REMARK   45  A    between atoms: _112  and  _115
REMARK   46  A    between atoms: _115  and  _116
REMARK   47  A    between atoms: _116  and  _117
REMARK   48  A    between atoms: _120  and  _122
REMARK   49  A    between atoms: _133  and  _136
REMARK   50  A    between atoms: _136  and  _137
REMARK   51  A    between atoms: _145  and  _146
REMARK   52  A    between atoms: _154  and  _156
REMARK   53  A    between atoms: _156  and  _157
REMARK   54  A    between atoms: _156  and  _159
REMARK   55  A    between atoms: _159  and  _160
REMARK   56  A    between atoms: _166  and  _168
REMARK   57  A    between atoms: _168  and  _169
REMARK   58  A    between atoms: _168  and  _171
REMARK   59  A    between atoms: _171  and  _172
REMARK   60  A    between atoms: _175  and  _177
REMARK   61  A    between atoms: _177  and  _178
REMARK   62  A    between atoms: _177  and  _180
REMARK   63  A    between atoms: _180  and  _181
REMARK   64  A    between atoms: _185  and  ZN_343
REMARK   65  A    between atoms: _186  and  _188
REMARK   66  A    between atoms: _188  and  _189
REMARK   67  A    between atoms: _188  and  _191
REMARK   68  A    between atoms: _191  and  _192
REMARK   69  A    between atoms: _198  and  _200
REMARK   70  A    between atoms: _200  and  _201
REMARK   71  A    between atoms: _200  and  _203
REMARK   72  A    between atoms: _203  and  _204
REMARK   73  A    between atoms: _204  and  _205
REMARK   74  A    between atoms: _208  and  _210
REMARK   75  A    between atoms: _210  and  _211
REMARK   76  A    between atoms: _210  and  _213
REMARK   77  A    between atoms: _213  and  _214
REMARK   78  A    between atoms: _219  and  _221
REMARK   79  A    between atoms: _221  and  _222
REMARK   80  A    between atoms: _221  and  _224
REMARK   81  A    between atoms: _224  and  _225
REMARK   82  A    between atoms: _228  and  _230
REMARK   83  A    between atoms: _230  and  _231
REMARK   84  A    between atoms: _233  and  _235
REMARK   85  A    between atoms: _235  and  _236
REMARK   86  A    between atoms: _235  and  _238
REMARK   87  A    between atoms: _238  and  _239
REMARK   88  A    between atoms: _244  and  _245
REMARK   89  A    between atoms: _247  and  _249
REMARK   90  A    between atoms: _249  and  _250
REMARK   91  A    between atoms: _249  and  _252
REMARK   92  A    between atoms: _252  and  _253
REMARK   93  A    between atoms: _255  and  _257
REMARK   94  A    between atoms: _257  and  _258
REMARK   95  A    between atoms: _257  and  _260
REMARK   96  A    between atoms: _260  and  _261
REMARK   97  A    between atoms: _265  and  ZN_344
REMARK   98  A    between atoms: _266  and  _268
REMARK   99  A    between atoms: _268  and  _269
REMARK  100  A    between atoms: _268  and  _271
REMARK  101  A    between atoms: _271  and  _272
REMARK  102  A    between atoms: _272  and  _274
REMARK  103  A    between atoms: _274  and  ZN_344
REMARK  104  A    between atoms: _275  and  _277
REMARK  105  A    between atoms: _277  and  _278
REMARK  106  A    between atoms: _277  and  _280
REMARK  107  A    between atoms: _280  and  _281
REMARK  108  A    between atoms: _286  and  _287
REMARK  109  A    between atoms: _289  and  _291
REMARK  110  A    between atoms: _291  and  _292
REMARK  111  A    between atoms: _295  and  _297
REMARK  112  A    between atoms: _297  and  _298
REMARK  113  A    between atoms: _301  and  _303
REMARK  114  A    between atoms: _303  and  _304
REMARK  115  A    between atoms: _303  and  _306
REMARK  116  A    between atoms: _306  and  _307
REMARK  117  A    between atoms: _313  and  _315
REMARK  118  A    between atoms: _315  and  _316
REMARK  119  A    between atoms: _315  and  _318
REMARK  120  A    between atoms: _318  and  _319
REMARK  121  A    between atoms: _324  and  _326
REMARK  122  A    between atoms: _326  and  _327
REMARK  123  A    between atoms: _326  and  _329
REMARK  124  A    between atoms: _329  and  _330
REMARK  125  A    between atoms: _332  and  _334
REMARK  126  A    between atoms: _334  and  _335
REMARK  127  A    between atoms: _334  and  _337
REMARK  128  A    between atoms: _337  and  _338
REMARK  129  A    between atoms: _342  and  ZN_343
REMARK                            x       y       z     vdW  Elec       q    Type
REMARK                         _______ _______ _______ _____ _____    ______ ____
ROOT
ATOM      1  CG  TYR A   1       8.401   4.770  -8.763  0.00  0.00    +0.000 A 
ATOM      2  CD2 TYR A   1       7.402   5.735  -8.810  0.00  0.00    +0.000 A 
ATOM      3  CE2 TYR A   1       6.105   5.407  -9.187  0.00  0.00    +0.000 A 
ATOM      4  CZ  TYR A   1       5.809   4.100  -9.520  0.00  0.00    +0.000 A 
ATOM      5  CE1 TYR A   1       6.789   3.132  -9.484  0.00  0.00    +0.000 A 
ATOM      6  CD1 TYR A   1       8.074   3.469  -9.108  0.00  0.00    +0.000 A 
ENDROOT
BRANCH   4   7
ATOM      7  OH  TYR A   1       4.534   3.754  -9.900  0.00  0.00    +0.000 OA
ATOM      8  HH  TYR A   1       4.280   4.268 -10.707  0.00  0.00    +0.000 HD
ENDBRANCH   4   7
BRANCH   1   9
ATOM      9  CB  TYR A   1       9.806   5.136  -8.346  0.00  0.00    +0.000 C 
BRANCH   9  10
ATOM     10  CA  TYR A   1      10.925   4.347  -9.032  0.00  0.00    +0.000 C 
BRANCH  10  11
ATOM     11  N   TYR A   1      11.201   3.100  -8.313  0.00  0.00    +0.000 NA
ATOM     12  H   TYR A   1      10.691   2.908  -7.427  0.00  0.00    +0.000 HD
ENDBRANCH  10  11
BRANCH  10  13
ATOM     13  C   TYR A   1      12.146   5.250  -9.111  0.00  0.00    +0.000 C 
ATOM     14  O   TYR A   1      12.395   5.889 -10.131  0.00  0.00    +0.000 OA
ENDBRANCH  10  13
ENDBRANCH   9  10
ENDBRANCH   1   9
TORSDOF 5
REMARK  Name = ../refined-set-2016/4keq/4keq_pocket.pdb
REMARK  129 active torsions:
REMARK  status: ('A' for Active; 'I' for Inactive)
REMARK    1  A    between atoms: _1  and  _3
REMARK    2  A    between atoms: _3  and  _4
REMARK    3  A    between atoms: _3  and  _6
REMARK    4  A    between atoms: _6  and  _7
REMARK    5  A    between atoms: _10  and  _12
REMARK    6  A    between atoms: _12  and  _13
REMARK    7  A    between atoms: _12  and  _15
REMARK    8  A    between atoms: _18  and  _20
REMARK    9  A    between atoms: _20  and  _21
REMARK   10  A    between atoms: _20  and  _23
REMARK   11  A    between atoms: _23  and  _24
REMARK   12  A    between atoms: _27  and  _29
REMARK   13  A    between atoms: _29  and  _30
REMARK   14  A    between atoms: _29  and  _32
REMARK   15  A    between atoms: _32  and  _33
REMARK   16  A    between atoms: _36  and  _38
REMARK   17  A    between atoms: _38  and  _39
REMARK   18  A    between atoms: _38  and  _41
REMARK   19  A    between atoms: _41  and  _42
REMARK   20  A    between atoms: _47  and  _49
REMARK   21  A    between atoms: _49  and  _50
REMARK   22  A    between atoms: _49  and  _52
REMARK   23  A    between atoms: _52  and  _53
REMARK   24  A    between atoms: _59  and  _61
REMARK   25  A    between atoms: _61  and  _62
REMARK   26  A    between atoms: _61  and  _64
REMARK   27  A    between atoms: _67  and  _69
REMARK   28  A    between atoms: _69  and  _70
REMARK   29  A    between atoms: _69  and  _72
REMARK   30  A    between atoms: _72  and  _73
REMARK   31  A    between atoms: _78  and  _79
REMARK   32  A    between atoms: _81  and  _83
REMARK   33  A    between atoms: _83  and  _84
REMARK   34  A    between atoms: _83  and  _86
REMARK   35  A    between atoms: _89  and  _91
REMARK   36  A    between atoms: _91  and  _92
REMARK   37  A    between atoms: _91  and  _94
REMARK   38  A    between atoms: _94  and  _95
REMARK   39  A    between atoms: _98  and  _100
REMARK   40  A    between atoms: _100  and  _101
REMARK   41  A    between atoms: _100  and  _103
REMARK   42  A    between atoms: _103  and  _104
REMARK   43  A    between atoms: _110  and  _112
REMARK   44  A    between atoms: _112  and  _113
REMARK   45  A    between atoms: _112  and  _115
REMARK   46  A    between atoms: _115  and  _116
REMARK   47  A    between atoms: _116  and  _117
REMARK   48  A    between atoms: _120  and  _122
REMARK   49  A    between atoms: _133  and  _136
REMARK   50  A    between atoms: _136  and  _137
REMARK   51  A    between atoms: _145  and  _146
REMARK   52  A    between atoms: _154  and  _156
REMARK   53  A    between atoms: _156  and  _157
REMARK   54  A    between atoms: _156  and  _159
REMARK   55  A    between atoms: _159  and  _160
REMARK   56  A    between atoms: _166  and  _168
REMARK   57  A    between atoms: _168  and  _169
REMARK   58  A    between atoms: _168  and  _171
REMARK   59  A    between atoms: _171  and  _172
REMARK   60  A    between atoms: _175  and  _177
REMARK   61  A    between atoms: _177  and  _178
REMARK   62  A    between atoms: _177  and  _180
REMARK   63  A    between atoms: _180  and  _181
REMARK   64  A    between atoms: _185  and  ZN_343
REMARK   65  A    between atoms: _186  and  _188
REMARK   66  A    between atoms: _188  and  _189
REMARK   67  A    between atoms: _188  and  _191
REMARK   68  A    between atoms: _191  and  _192
REMARK   69  A    between atoms: _198  and  _200
REMARK   70  A    between atoms: _200  and  _201
REMARK   71  A    between atoms: _200  and  _203
REMARK   72  A    between atoms: _203  and  _204
REMARK   73  A    between atoms: _204  and  _205
REMARK   74  A    between atoms: _208  and  _210
REMARK   75  A    between atoms: _210  and  _211
REMARK   76  A    between atoms: _210  and  _213
REMARK   77  A    between atoms: _213  and  _214
REMARK   78  A    between atoms: _219  and  _221
REMARK   79  A    between atoms: _221  and  _222
REMARK   80  A    between atoms: _221  and  _224
REMARK   81  A    between atoms: _224  and  _225
REMARK   82  A    between atoms: _228  and  _230
REMARK   83  A    between atoms: _230  and  _231
REMARK   84  A    between atoms: _233  and  _235
REMARK   85  A    between atoms: _235  and  _236
REMARK   86  A    between atoms: _235  and  _238
REMARK   87  A    between atoms: _238  and  _239
REMARK   88  A    between atoms: _244  and  _245
REMARK   89  A    between atoms: _247  and  _249
REMARK   90  A    between atoms: _249  and  _250
REMARK   91  A    between atoms: _249  and  _252
REMARK   92  A    between atoms: _252  and  _253
REMARK   93  A    between atoms: _255  and  _257
REMARK   94  A    between atoms: _257  and  _258
REMARK   95  A    between atoms: _257  and  _260
REMARK   96  A    between atoms: _260  and  _261
REMARK   97  A    between atoms: _265  and  ZN_344
REMARK   98  A    between atoms: _266  and  _268
REMARK   99  A    between atoms: _268  and  _269
REMARK  100  A    between atoms: _268  and  _271
REMARK  101  A    between atoms: _271  and  _272
REMARK  102  A    between atoms: _272  and  _274
REMARK  103  A    between atoms: _274  and  ZN_344
REMARK  104  A    between atoms: _275  and  _277
REMARK  105  A    between atoms: _277  and  _278
REMARK  106  A    between atoms: _277  and  _280
REMARK  107  A    between atoms: _280  and  _281
REMARK  108  A    between atoms: _286  and  _287
REMARK  109  A    between atoms: _289  and  _291
REMARK  110  A    between atoms: _291  and  _292
REMARK  111  A    between atoms: _295  and  _297
REMARK  112  A    between atoms: _297  and  _298
REMARK  113  A    between atoms: _301  and  _303
REMARK  114  A    between atoms: _303  and  _304
REMARK  115  A    between atoms: _303  and  _306
REMARK  116  A    between atoms: _306  and  _307
REMARK  117  A    between atoms: _313  and  _315
REMARK  118  A    between atoms: _315  and  _316
REMARK  119  A    between atoms: _315  and  _318
REMARK  120  A    between atoms: _318  and  _319
REMARK  121  A    between atoms: _324  and  _326
REMARK  122  A    between atoms: _326  and  _327
REMARK  123  A    between atoms: _326  and  _329
REMARK  124  A    between atoms: _329  and  _330
REMARK  125  A    between atoms: _332  and  _334
REMARK  126  A    between atoms: _334  and  _335
REMARK  127  A    between atoms: _334  and  _337
REMARK  128  A    between atoms: _337  and  _338
REMARK  129  A    between atoms: _342  and  ZN_343
REMARK                            x       y       z     vdW  Elec       q    Type
REMARK                         _______ _______ _______ _____ _____    ______ ____
ROOT
ATOM      1  CA  PHE A   3       0.999   1.683  -6.108  0.00  0.00    +0.000 C 
ENDROOT
BRANCH   1   4
ATOM      2  C   ALA A   2       1.387   2.643  -3.920  0.00  0.00    +0.000 C 
ATOM      3  O   ALA A   2       0.394   2.095  -3.441  0.00  0.00    +0.000 OA
ATOM      4  N   PHE A   3       1.696   2.580  -5.207  0.00  0.00    +0.000 N 
ATOM      5  H   PHE A   3       2.454   3.187  -5.579  0.00  0.00    +0.000 HD
BRANCH   2   6
ATOM      6  CA  ALA A   2       2.334   3.458  -3.049  0.00  0.00    +0.000 C 
ATOM      7  CB  ALA A   2       1.676   4.764  -2.632  0.00  0.00    +0.000 C 
BRANCH   6  10
ATOM      8  C   ALA A   1       4.540   2.797  -3.876  0.00  0.00    +0.000 C 
ATOM      9  O   ALA A   1       4.437   1.648  -3.434  0.00  0.00    +0.000 OA
ATOM     10  N   ALA A   2       3.586   3.719  -3.752  0.00  0.00    +0.000 N 
ATOM     11  H   ALA A   2       3.739   4.658  -4.171  0.00  0.00    +0.000 HD
BRANCH   8  12
ATOM     12  CA  ALA A   1       5.809   3.235  -4.591  0.00  0.00    +0.000 C 
ATOM     13  CB  ALA A   1       5.604   3.250  -6.091  0.00  0.00    +0.000 C 
BRANCH  12  14
ATOM     14  N   ALA A   1       6.894   2.337  -4.226  0.00  0.00    +0.000 NA
ATOM     15  H   ALA A   1       7.262   1.665  -4.929  0.00  0.00    +0.000 HD
ENDBRANCH  12  14
ENDBRANCH   8  12
ENDBRANCH   6  10
ENDBRANCH   2   6
ENDBRANCH   1   4
BRANCH   1  16
ATOM     16  C   PHE A   3       1.658   0.317  -6.035  0.00  0.00    +0.000 C 
ATOM     17  N   HIS A   4       0.949  -0.636  -5.445  0.00  0.00    +0.000 N 
ATOM     18  H   HIS A   4       0.037  -0.388  -5.012  0.00  0.00    +0.000 HD
ATOM     19  O   PHE A   3       2.793   0.143  -6.484  0.00  0.00    +0.000 OA
BRANCH  17  20
ATOM     20  CA  HIS A   4       1.403  -2.015  -5.383  0.00  0.00    +0.000 C 
BRANCH  20  21
ATOM     21  C   HIS A   4       0.221  -2.935  -5.126  0.00  0.00    +0.000 C 
ATOM     22  O   HIS A   4      -0.822  -2.497  -4.643  0.00  0.00    +0.000 OA
ENDBRANCH  20  21
BRANCH  20  23
ATOM     23  CB  HIS A   4       2.449  -2.191  -4.280  0.00  0.00    +0.000 C 
BRANCH  23  24
ATOM     24  CG  HIS A   4       2.077  -1.537  -2.988  0.00  0.00    +0.000 A 
ATOM     25  ND1 HIS A   4       1.097  -2.035  -2.157  0.00  0.00    +0.000 NA
ATOM     26  CE1 HIS A   4       0.981  -1.251  -1.101  0.00  0.00    +0.000 A 
ATOM     27  NE2 HIS A   4       1.850  -0.264  -1.215  0.00  0.00    +0.000 NA
ATOM     28  CD2 HIS A   4       2.549  -0.419  -2.387  0.00  0.00    +0.000 A 
ENDBRANCH  23  24
ENDBRANCH  20  23
ENDBRANCH  17  20
ENDBRANCH   1  16
BRANCH   1  29
ATOM     29  CB  PHE A   3       1.050   2.204  -7.543  0.00  0.00    +0.000 C 
BRANCH  29  30
ATOM     30  CG  PHE A   3       0.440   3.561  -7.712  0.00  0.00    +0.000 A 
ATOM     31  CD2 PHE A   3      -0.919   3.751  -7.514  0.00  0.00    +0.000 A 
ATOM     32  CE2 PHE A   3      -1.488   5.002  -7.674  0.00  0.00    +0.000 A 
ATOM     33  CZ  PHE A   3      -0.693   6.076  -8.039  0.00  0.00    +0.000 A 
ATOM     34  CE1 PHE A   3       0.664   5.894  -8.241  0.00  0.00    +0.000 A 
ATOM     35  CD1 PHE A   3       1.223   4.647  -8.077  0.00  0.00    +0.000 A 
ENDBRANCH  29  30
ENDBRANCH   1  29
TORSDOF 12
REMARK  Name = ../refined-set-2016/4keq/4keq_pocket.pdb
REMARK  129 active torsions:
REMARK  status: ('A' for Active; 'I' for Inactive)
REMARK    1  A    between atoms: _1  and  _3
REMARK    2  A    between atoms: _3  and  _4
REMARK    3  A    between atoms: _3  and  _6
REMARK    4  A    between atoms: _6  and  _7
REMARK    5  A    between atoms: _10  and  _12
REMARK    6  A    between atoms: _12  and  _13
REMARK    7  A    between atoms: _12  and  _15
REMARK    8  A    between atoms: _18  and  _20
REMARK    9  A    between atoms: _20  and  _21
REMARK   10  A    between atoms: _20  and  _23
REMARK   11  A    between atoms: _23  and  _24
REMARK   12  A    between atoms: _27  and  _29
REMARK   13  A    between atoms: _29  and  _30
REMARK   14  A    between atoms: _29  and  _32
REMARK   15  A    between atoms: _32  and  _33
REMARK   16  A    between atoms: _36  and  _38
REMARK   17  A    between atoms: _38  and  _39
REMARK   18  A    between atoms: _38  and  _41
REMARK   19  A    between atoms: _41  and  _42
REMARK   20  A    between atoms: _47  and  _49
REMARK   21  A    between atoms: _49  and  _50
REMARK   22  A    between atoms: _49  and  _52
REMARK   23  A    between atoms: _52  and  _53
REMARK   24  A    between atoms: _59  and  _61
REMARK   25  A    between atoms: _61  and  _62
REMARK   26  A    between atoms: _61  and  _64
REMARK   27  A    between atoms: _67  and  _69
REMARK   28  A    between atoms: _69  and  _70
REMARK   29  A    between atoms: _69  and  _72
REMARK   30  A    between atoms: _72  and  _73
REMARK   31  A    between atoms: _78  and  _79
REMARK   32  A    between atoms: _81  and  _83
REMARK   33  A    between atoms: _83  and  _84
REMARK   34  A    between atoms: _83  and  _86
REMARK   35  A    between atoms: _89  and  _91
REMARK   36  A    between atoms: _91  and  _92
REMARK   37  A    between atoms: _91  and  _94
REMARK   38  A    between atoms: _94  and  _95
REMARK   39  A    between atoms: _98  and  _100
REMARK   40  A    between atoms: _100  and  _101
REMARK   41  A    between atoms: _100  and  _103
REMARK   42  A    between atoms: _103  and  _104
REMARK   43  A    between atoms: _110  and  _112
REMARK   44  A    between atoms: _112  and  _113
REMARK   45  A    between atoms: _112  and  _115
REMARK   46  A    between atoms: _115  and  _116
REMARK   47  A    between atoms: _116  and  _117
REMARK   48  A    between atoms: _120  and  _122
REMARK   49  A    between atoms: _133  and  _136
REMARK   50  A    between atoms: _136  and  _137
REMARK   51  A    between atoms: _145  and  _146
REMARK   52  A    between atoms: _154  and  _156
REMARK   53  A    between atoms: _156  and  _157
REMARK   54  A    between atoms: _156  and  _159
REMARK   55  A    between atoms: _159  and  _160
REMARK   56  A    between atoms: _166  and  _168
REMARK   57  A    between atoms: _168  and  _169
REMARK   58  A    between atoms: _168  and  _171
REMARK   59  A    between atoms: _171  and  _172
REMARK   60  A    between atoms: _175  and  _177
REMARK   61  A    between atoms: _177  and  _178
REMARK   62  A    between atoms: _177  and  _180
REMARK   63  A    between atoms: _180  and  _181
REMARK   64  A    between atoms: _185  and  ZN_343
REMARK   65  A    between atoms: _186  and  _188
REMARK   66  A    between atoms: _188  and  _189
REMARK   67  A    between atoms: _188  and  _191
REMARK   68  A    between atoms: _191  and  _192
REMARK   69  A    between atoms: _198  and  _200
REMARK   70  A    between atoms: _200  and  _201
REMARK   71  A    between atoms: _200  and  _203
REMARK   72  A    between atoms: _203  and  _204
REMARK   73  A    between atoms: _204  and  _205
REMARK   74  A    between atoms: _208  and  _210
REMARK   75  A    between atoms: _210  and  _211
REMARK   76  A    between atoms: _210  and  _213
REMARK   77  A    between atoms: _213  and  _214
REMARK   78  A    between atoms: _219  and  _221
REMARK   79  A    between atoms: _221  and  _222
REMARK   80  A    between atoms: _221  and  _224
REMARK   81  A    between atoms: _224  and  _225
REMARK   82  A    between atoms: _228  and  _230
REMARK   83  A    between atoms: _230  and  _231
REMARK   84  A    between atoms: _233  and  _235
REMARK   85  A    between atoms: _235  and  _236
REMARK   86  A    between atoms: _235  and  _238
REMARK   87  A    between atoms: _238  and  _239
REMARK   88  A    between atoms: _244  and  _245
REMARK   89  A    between atoms: _247  and  _249
REMARK   90  A    between atoms: _249  and  _250
REMARK   91  A    between atoms: _249  and  _252
REMARK   92  A    between atoms: _252  and  _253
REMARK   93  A    between atoms: _255  and  _257
REMARK   94  A    between atoms: _257  and  _258
REMARK   95  A    between atoms: _257  and  _260
REMARK   96  A    between atoms: _260  and  _261
REMARK   97  A    between atoms: _265  and  ZN_344
REMARK   98  A    between atoms: _266  and  _268
REMARK   99  A    between atoms: _268  and  _269
REMARK  100  A    between atoms: _268  and  _271
REMARK  101  A    between atoms: _271  and  _272
REMARK  102  A    between atoms: _272  and  _274
REMARK  103  A    between atoms: _274  and  ZN_344
REMARK  104  A    between atoms: _275  and  _277
REMARK  105  A    between atoms: _277  and  _278
REMARK  106  A    between atoms: _277  and  _280
REMARK  107  A    between atoms: _280  and  _281
REMARK  108  A    between atoms: _286  and  _287
REMARK  109  A    between atoms: _289  and  _291
REMARK  110  A    between atoms: _291  and  _292
REMARK  111  A    between atoms: _295  and  _297
REMARK  112  A    between atoms: _297  and  _298
REMARK  113  A    between atoms: _301  and  _303
REMARK  114  A    between atoms: _303  and  _304
REMARK  115  A    between atoms: _303  and  _306
REMARK  116  A    between atoms: _306  and  _307
REMARK  117  A    between atoms: _313  and  _315
REMARK  118  A    between atoms: _315  and  _316
REMARK  119  A    between atoms: _315  and  _318
REMARK  120  A    between atoms: _318  and  _319
REMARK  121  A    between atoms: _324  and  _326
REMARK  122  A    between atoms: _326  and  _327
REMARK  123  A    between atoms: _326  and  _329
REMARK  124  A    between atoms: _329  and  _330
REMARK  125  A    between atoms: _332  and  _334
REMARK  126  A    between atoms: _334  and  _335
REMARK  127  A    between atoms: _334  and  _337
REMARK  128  A    between atoms: _337  and  _338
REMARK  129  A    between atoms: _342  and  ZN_343
REMARK                            x       y       z     vdW  Elec       q    Type
REMARK                         _______ _______ _______ _____ _____    ______ ____
ROOT
ATOM      1  O   HOH     1       5.486   0.038  -6.015  0.00  0.00    +0.000 OA
ENDROOT
TORSDOF 0
