REMARK  Name = ../refined-set-2016/1ppi/1ppi_pocket.pdb
REMARK  243 active torsions:
REMARK  status: ('A' for Active; 'I' for Inactive)
REMARK    1  A    between atoms: _1  and  _3
REMARK    2  A    between atoms: _3  and  _4
REMARK    3  A    between atoms: _3  and  _6
REMARK    4  A    between atoms: _6  and  _7
REMARK    5  A    between atoms: _12  and  _14
REMARK    6  A    between atoms: _14  and  _15
REMARK    7  A    between atoms: _14  and  _17
REMARK    8  A    between atoms: _17  and  _18
REMARK    9  A    between atoms: _24  and  _26
REMARK   10  A    between atoms: _26  and  _27
REMARK   11  A    between atoms: _26  and  _29
REMARK   12  A    between atoms: _29  and  _30
REMARK   13  A    between atoms: _30  and  _31
REMARK   14  A    between atoms: _37  and  _38
REMARK   15  A    between atoms: _43  and  _45
REMARK   16  A    between atoms: _45  and  _46
REMARK   17  A    between atoms: _45  and  _48
REMARK   18  A    between atoms: _48  and  _49
REMARK   19  A    between atoms: _54  and  _56
REMARK   20  A    between atoms: _56  and  _57
REMARK   21  A    between atoms: _56  and  _59
REMARK   22  A    between atoms: _62  and  _64
REMARK   23  A    between atoms: _64  and  _65
REMARK   24  A    between atoms: _64  and  _67
REMARK   25  A    between atoms: _71  and  _72
REMARK   26  A    between atoms: _78  and  _79
REMARK   27  A    between atoms: _84  and  _86
REMARK   28  A    between atoms: _86  and  _87
REMARK   29  A    between atoms: _86  and  _89
REMARK   30  A    between atoms: _89  and  _90
REMARK   31  A    between atoms: _100  and  _102
REMARK   32  A    between atoms: _102  and  _103
REMARK   33  A    between atoms: _102  and  _105
REMARK   34  A    between atoms: _105  and  _106
REMARK   35  A    between atoms: _116  and  _118
REMARK   36  A    between atoms: _118  and  _119
REMARK   37  A    between atoms: _118  and  _121
REMARK   38  A    between atoms: _121  and  _122
REMARK   39  A    between atoms: _122  and  _123
REMARK   40  A    between atoms: _126  and  _128
REMARK   41  A    between atoms: _128  and  _129
REMARK   42  A    between atoms: _128  and  _131
REMARK   43  A    between atoms: _131  and  _132
REMARK   44  A    between atoms: _132  and  _133
REMARK   45  A    between atoms: _133  and  _134
REMARK   46  A    between atoms: _143  and  _145
REMARK   47  A    between atoms: _145  and  _146
REMARK   48  A    between atoms: _145  and  _148
REMARK   49  A    between atoms: _148  and  _149
REMARK   50  A    between atoms: _154  and  _155
REMARK   51  A    between atoms: _157  and  _159
REMARK   52  A    between atoms: _159  and  _160
REMARK   53  A    between atoms: _159  and  _162
REMARK   54  A    between atoms: _162  and  _163
REMARK   55  A    between atoms: _163  and  _164
REMARK   56  A    between atoms: _170  and  _171
REMARK   57  A    between atoms: _176  and  _178
REMARK   58  A    between atoms: _178  and  _179
REMARK   59  A    between atoms: _178  and  _181
REMARK   60  A    between atoms: _181  and  _182
REMARK   61  A    between atoms: _185  and  _187
REMARK   62  A    between atoms: _187  and  _188
REMARK   63  A    between atoms: _191  and  _193
REMARK   64  A    between atoms: _193  and  _194
REMARK   65  A    between atoms: _193  and  _196
REMARK   66  A    between atoms: _199  and  _201
REMARK   67  A    between atoms: _201  and  _202
REMARK   68  A    between atoms: _201  and  _204
REMARK   69  A    between atoms: _204  and  _205
REMARK   70  A    between atoms: _208  and  _210
REMARK   71  A    between atoms: _210  and  _211
REMARK   72  A    between atoms: _210  and  _213
REMARK   73  A    between atoms: _213  and  _214
REMARK   74  A    between atoms: _219  and  _221
REMARK   75  A    between atoms: _221  and  _222
REMARK   76  A    between atoms: _221  and  _224
REMARK   77  A    between atoms: _224  and  _225
REMARK   78  A    between atoms: _230  and  _232
REMARK   79  A    between atoms: _232  and  _233
REMARK   80  A    between atoms: _232  and  _235
REMARK   81  A    between atoms: _235  and  _236
REMARK   82  A    between atoms: _236  and  _237
REMARK   83  A    between atoms: _239  and  _241
REMARK   84  A    between atoms: _241  and  _242
REMARK   85  A    between atoms: _241  and  _244
REMARK   86  A    between atoms: _246  and  _248
REMARK   87  A    between atoms: _248  and  _249
REMARK   88  A    between atoms: _251  and  _253
REMARK   89  A    between atoms: _253  and  _254
REMARK   90  A    between atoms: _253  and  _256
REMARK   91  A    between atoms: _256  and  _257
REMARK   92  A    between atoms: _259  and  _261
REMARK   93  A    between atoms: _261  and  _262
REMARK   94  A    between atoms: _264  and  _266
REMARK   95  A    between atoms: _266  and  _267
REMARK   96  A    between atoms: _270  and  _272
REMARK   97  A    between atoms: _272  and  _273
REMARK   98  A    between atoms: _272  and  _275
REMARK   99  A    between atoms: _275  and  _276
REMARK  100  A    between atoms: _279  and  _281
REMARK  101  A    between atoms: _281  and  _282
REMARK  102  A    between atoms: _281  and  _284
REMARK  103  A    between atoms: _284  and  _285
REMARK  104  A    between atoms: _290  and  _291
REMARK  105  A    between atoms: _293  and  _295
REMARK  106  A    between atoms: _295  and  _296
REMARK  107  A    between atoms: _295  and  _298
REMARK  108  A    between atoms: _301  and  _303
REMARK  109  A    between atoms: _303  and  _304
REMARK  110  A    between atoms: _303  and  _306
REMARK  111  A    between atoms: _306  and  _307
REMARK  112  A    between atoms: _307  and  _308
REMARK  113  A    between atoms: _313  and  _315
REMARK  114  A    between atoms: _315  and  _316
REMARK  115  A    between atoms: _315  and  _318
REMARK  116  A    between atoms: _318  and  _319
REMARK  117  A    between atoms: _322  and  _324
REMARK  118  A    between atoms: _324  and  _325
REMARK  119  A    between atoms: _324  and  _327
REMARK  120  A    between atoms: _330  and  _332
REMARK  121  A    between atoms: _332  and  _333
REMARK  122  A    between atoms: _335  and  _337
REMARK  123  A    between atoms: _337  and  _338
REMARK  124  A    between atoms: _337  and  _340
REMARK  125  A    between atoms: _340  and  _341
REMARK  126  A    between atoms: _344  and  _346
REMARK  127  A    between atoms: _346  and  _347
REMARK  128  A    between atoms: _346  and  _349
REMARK  129  A    between atoms: _349  and  _350
REMARK  130  A    between atoms: _353  and  _355
REMARK  131  A    between atoms: _355  and  _356
REMARK  132  A    between atoms: _355  and  _358
REMARK  133  A    between atoms: _358  and  _359
REMARK  134  A    between atoms: _359  and  _360
REMARK  135  A    between atoms: _360  and  _361
REMARK  136  A    between atoms: _370  and  _372
REMARK  137  A    between atoms: _372  and  _373
REMARK  138  A    between atoms: _372  and  _375
REMARK  139  A    between atoms: _375  and  _376
REMARK  140  A    between atoms: _379  and  _381
REMARK  141  A    between atoms: _381  and  _382
REMARK  142  A    between atoms: _381  and  _384
REMARK  143  A    between atoms: _384  and  _385
REMARK  144  A    between atoms: _388  and  _390
REMARK  145  A    between atoms: _390  and  _391
REMARK  146  A    between atoms: _394  and  _396
REMARK  147  A    between atoms: _396  and  _397
REMARK  148  A    between atoms: _396  and  _399
REMARK  149  A    between atoms: _399  and  _400
REMARK  150  A    between atoms: _402  and  _404
REMARK  151  A    between atoms: _404  and  _405
REMARK  152  A    between atoms: _404  and  _407
REMARK  153  A    between atoms: _407  and  _408
REMARK  154  A    between atoms: _408  and  _409
REMARK  155  A    between atoms: _409  and  _410
REMARK  156  A    between atoms: _410  and  _411
REMARK  157  A    between atoms: _415  and  _417
REMARK  158  A    between atoms: _417  and  _418
REMARK  159  A    between atoms: _417  and  _420
REMARK  160  A    between atoms: _420  and  _421
REMARK  161  A    between atoms: _426  and  _428
REMARK  162  A    between atoms: _428  and  _429
REMARK  163  A    between atoms: _428  and  _431
REMARK  164  A    between atoms: _431  and  _432
REMARK  165  A    between atoms: _432  and  _433
REMARK  166  A    between atoms: _436  and  _438
REMARK  167  A    between atoms: _438  and  _439
REMARK  168  A    between atoms: _438  and  _441
REMARK  169  A    between atoms: _444  and  _446
REMARK  170  A    between atoms: _446  and  _447
REMARK  171  A    between atoms: _446  and  _449
REMARK  172  A    between atoms: _449  and  _450
REMARK  173  A    between atoms: _453  and  _455
REMARK  174  A    between atoms: _455  and  _456
REMARK  175  A    between atoms: _455  and  _458
REMARK  176  A    between atoms: _458  and  _459
REMARK  177  A    between atoms: _462  and  _464
REMARK  178  A    between atoms: _464  and  _465
REMARK  179  A    between atoms: _464  and  _467
REMARK  180  A    between atoms: _467  and  _468
REMARK  181  A    between atoms: _471  and  _473
REMARK  182  A    between atoms: _473  and  _474
REMARK  183  A    between atoms: _476  and  _478
REMARK  184  A    between atoms: _478  and  _479
REMARK  185  A    between atoms: _478  and  _481
REMARK  186  A    between atoms: _481  and  _482
REMARK  187  A    between atoms: _482  and  _483
REMARK  188  A    between atoms: _486  and  _488
REMARK  189  A    between atoms: _488  and  _489
REMARK  190  A    between atoms: _488  and  _491
REMARK  191  A    between atoms: _491  and  _492
REMARK  192  A    between atoms: _495  and  _497
REMARK  193  A    between atoms: _497  and  _498
REMARK  194  A    between atoms: _497  and  _500
REMARK  195  A    between atoms: _500  and  _501
REMARK  196  A    between atoms: _507  and  _509
REMARK  197  A    between atoms: _509  and  _510
REMARK  198  A    between atoms: _509  and  _512
REMARK  199  A    between atoms: _512  and  _513
REMARK  200  A    between atoms: _518  and  _520
REMARK  201  A    between atoms: _520  and  _521
REMARK  202  A    between atoms: _520  and  _523
REMARK  203  A    between atoms: _523  and  _524
REMARK  204  A    between atoms: _529  and  _531
REMARK  205  A    between atoms: _531  and  _532
REMARK  206  A    between atoms: _531  and  _534
REMARK  207  A    between atoms: _534  and  _535
REMARK  208  A    between atoms: _538  and  _540
REMARK  209  A    between atoms: _540  and  _541
REMARK  210  A    between atoms: _540  and  _543
REMARK  211  A    between atoms: _543  and  _544
REMARK  212  A    between atoms: _549  and  _551
REMARK  213  A    between atoms: _551  and  _552
REMARK  214  A    between atoms: _551  and  _554
REMARK  215  A    between atoms: _554  and  _555
REMARK  216  A    between atoms: _555  and  _556
REMARK  217  A    between atoms: _556  and  _557
REMARK  218  A    between atoms: _566  and  _568
REMARK  219  A    between atoms: _568  and  _569
REMARK  220  A    between atoms: _571  and  _573
REMARK  221  A    between atoms: _573  and  _574
REMARK  222  A    between atoms: _573  and  _576
REMARK  223  A    between atoms: _576  and  _577
REMARK  224  A    between atoms: _582  and  _584
REMARK  225  A    between atoms: _584  and  _585
REMARK  226  A    between atoms: _587  and  _589
REMARK  227  A    between atoms: _589  and  _590
REMARK  228  A    between atoms: _593  and  _595
REMARK  229  A    between atoms: _595  and  _596
REMARK  230  A    between atoms: _598  and  _600
REMARK  231  A    between atoms: _600  and  _601
REMARK  232  A    between atoms: _600  and  _603
REMARK  233  A    between atoms: _603  and  _604
REMARK  234  A    between atoms: _604  and  _605
REMARK  235  A    between atoms: _605  and  _606
REMARK  236  A    between atoms: _615  and  _617
REMARK  237  A    between atoms: _617  and  _618
REMARK  238  A    between atoms: _617  and  _620
REMARK  239  A    between atoms: _620  and  _621
REMARK  240  A    between atoms: _624  and  _626
REMARK  241  A    between atoms: _626  and  _627
REMARK  242  A    between atoms: _626  and  _629
REMARK  243  A    between atoms: _629  and  _630
REMARK                            x       y       z     vdW  Elec       q    Type
REMARK                         _______ _______ _______ _____ _____    ______ ____
ROOT
ATOM      1  CB  HIS A   1      12.989  42.049  20.209  0.00  0.00    +0.072 C 
ENDROOT
BRANCH   1   2
ATOM      2  CG  HIS A   1      11.550  42.287  20.675  0.00  0.00    +0.082 A 
ATOM      3  CD2 HIS A   1      11.131  42.930  21.819  0.00  0.00    +0.115 A 
ATOM      4  NE2 HIS A   1       9.836  42.903  21.805  0.00  0.00    -0.221 NA
ATOM      5  CE1 HIS A   1       9.427  42.286  20.727  0.00  0.00    +0.199 A 
ATOM      6  ND1 HIS A   1      10.465  41.902  20.031  0.00  0.00    -0.227 NA
ENDBRANCH   1   2
BRANCH   1   7
ATOM      7  CA  HIS A   1      14.032  42.274  21.300  0.00  0.00    +0.139 C 
BRANCH   7   8
ATOM      8  N   HIS A   1      15.338  42.080  20.722  0.00  0.00    -0.239 NA
ATOM      9  H   HIS A   1      15.456  41.394  19.950  0.00  0.00    +0.142 HD
ENDBRANCH   7   8
BRANCH   7  10
ATOM     10  C   HIS A   1      13.919  41.249  22.431  0.00  0.00    +0.224 C 
ATOM     11  O   HIS A   1      13.855  40.051  22.177  0.00  0.00    -0.287 OA
ENDBRANCH   7  10
ENDBRANCH   1   7
TORSDOF 4
REMARK  Name = ../refined-set-2016/1ppi/1ppi_pocket.pdb
REMARK  243 active torsions:
REMARK  status: ('A' for Active; 'I' for Inactive)
REMARK    1  A    between atoms: _1  and  _3
REMARK    2  A    between atoms: _3  and  _4
REMARK    3  A    between atoms: _3  and  _6
REMARK    4  A    between atoms: _6  and  _7
REMARK    5  A    between atoms: _12  and  _14
REMARK    6  A    between atoms: _14  and  _15
REMARK    7  A    between atoms: _14  and  _17
REMARK    8  A    between atoms: _17  and  _18
REMARK    9  A    between atoms: _24  and  _26
REMARK   10  A    between atoms: _26  and  _27
REMARK   11  A    between atoms: _26  and  _29
REMARK   12  A    between atoms: _29  and  _30
REMARK   13  A    between atoms: _30  and  _31
REMARK   14  A    between atoms: _37  and  _38
REMARK   15  A    between atoms: _43  and  _45
REMARK   16  A    between atoms: _45  and  _46
REMARK   17  A    between atoms: _45  and  _48
REMARK   18  A    between atoms: _48  and  _49
REMARK   19  A    between atoms: _54  and  _56
REMARK   20  A    between atoms: _56  and  _57
REMARK   21  A    between atoms: _56  and  _59
REMARK   22  A    between atoms: _62  and  _64
REMARK   23  A    between atoms: _64  and  _65
REMARK   24  A    between atoms: _64  and  _67
REMARK   25  A    between atoms: _71  and  _72
REMARK   26  A    between atoms: _78  and  _79
REMARK   27  A    between atoms: _84  and  _86
REMARK   28  A    between atoms: _86  and  _87
REMARK   29  A    between atoms: _86  and  _89
REMARK   30  A    between atoms: _89  and  _90
REMARK   31  A    between atoms: _100  and  _102
REMARK   32  A    between atoms: _102  and  _103
REMARK   33  A    between atoms: _102  and  _105
REMARK   34  A    between atoms: _105  and  _106
REMARK   35  A    between atoms: _116  and  _118
REMARK   36  A    between atoms: _118  and  _119
REMARK   37  A    between atoms: _118  and  _121
REMARK   38  A    between atoms: _121  and  _122
REMARK   39  A    between atoms: _122  and  _123
REMARK   40  A    between atoms: _126  and  _128
REMARK   41  A    between atoms: _128  and  _129
REMARK   42  A    between atoms: _128  and  _131
REMARK   43  A    between atoms: _131  and  _132
REMARK   44  A    between atoms: _132  and  _133
REMARK   45  A    between atoms: _133  and  _134
REMARK   46  A    between atoms: _143  and  _145
REMARK   47  A    between atoms: _145  and  _146
REMARK   48  A    between atoms: _145  and  _148
REMARK   49  A    between atoms: _148  and  _149
REMARK   50  A    between atoms: _154  and  _155
REMARK   51  A    between atoms: _157  and  _159
REMARK   52  A    between atoms: _159  and  _160
REMARK   53  A    between atoms: _159  and  _162
REMARK   54  A    between atoms: _162  and  _163
REMARK   55  A    between atoms: _163  and  _164
REMARK   56  A    between atoms: _170  and  _171
REMARK   57  A    between atoms: _176  and  _178
REMARK   58  A    between atoms: _178  and  _179
REMARK   59  A    between atoms: _178  and  _181
REMARK   60  A    between atoms: _181  and  _182
REMARK   61  A    between atoms: _185  and  _187
REMARK   62  A    between atoms: _187  and  _188
REMARK   63  A    between atoms: _191  and  _193
REMARK   64  A    between atoms: _193  and  _194
REMARK   65  A    between atoms: _193  and  _196
REMARK   66  A    between atoms: _199  and  _201
REMARK   67  A    between atoms: _201  and  _202
REMARK   68  A    between atoms: _201  and  _204
REMARK   69  A    between atoms: _204  and  _205
REMARK   70  A    between atoms: _208  and  _210
REMARK   71  A    between atoms: _210  and  _211
REMARK   72  A    between atoms: _210  and  _213
REMARK   73  A    between atoms: _213  and  _214
REMARK   74  A    between atoms: _219  and  _221
REMARK   75  A    between atoms: _221  and  _222
REMARK   76  A    between atoms: _221  and  _224
REMARK   77  A    between atoms: _224  and  _225
REMARK   78  A    between atoms: _230  and  _232
REMARK   79  A    between atoms: _232  and  _233
REMARK   80  A    between atoms: _232  and  _235
REMARK   81  A    between atoms: _235  and  _236
REMARK   82  A    between atoms: _236  and  _237
REMARK   83  A    between atoms: _239  and  _241
REMARK   84  A    between atoms: _241  and  _242
REMARK   85  A    between atoms: _241  and  _244
REMARK   86  A    between atoms: _246  and  _248
REMARK   87  A    between atoms: _248  and  _249
REMARK   88  A    between atoms: _251  and  _253
REMARK   89  A    between atoms: _253  and  _254
REMARK   90  A    between atoms: _253  and  _256
REMARK   91  A    between atoms: _256  and  _257
REMARK   92  A    between atoms: _259  and  _261
REMARK   93  A    between atoms: _261  and  _262
REMARK   94  A    between atoms: _264  and  _266
REMARK   95  A    between atoms: _266  and  _267
REMARK   96  A    between atoms: _270  and  _272
REMARK   97  A    between atoms: _272  and  _273
REMARK   98  A    between atoms: _272  and  _275
REMARK   99  A    between atoms: _275  and  _276
REMARK  100  A    between atoms: _279  and  _281
REMARK  101  A    between atoms: _281  and  _282
REMARK  102  A    between atoms: _281  and  _284
REMARK  103  A    between atoms: _284  and  _285
REMARK  104  A    between atoms: _290  and  _291
REMARK  105  A    between atoms: _293  and  _295
REMARK  106  A    between atoms: _295  and  _296
REMARK  107  A    between atoms: _295  and  _298
REMARK  108  A    between atoms: _301  and  _303
REMARK  109  A    between atoms: _303  and  _304
REMARK  110  A    between atoms: _303  and  _306
REMARK  111  A    between atoms: _306  and  _307
REMARK  112  A    between atoms: _307  and  _308
REMARK  113  A    between atoms: _313  and  _315
REMARK  114  A    between atoms: _315  and  _316
REMARK  115  A    between atoms: _315  and  _318
REMARK  116  A    between atoms: _318  and  _319
REMARK  117  A    between atoms: _322  and  _324
REMARK  118  A    between atoms: _324  and  _325
REMARK  119  A    between atoms: _324  and  _327
REMARK  120  A    between atoms: _330  and  _332
REMARK  121  A    between atoms: _332  and  _333
REMARK  122  A    between atoms: _335  and  _337
REMARK  123  A    between atoms: _337  and  _338
REMARK  124  A    between atoms: _337  and  _340
REMARK  125  A    between atoms: _340  and  _341
REMARK  126  A    between atoms: _344  and  _346
REMARK  127  A    between atoms: _346  and  _347
REMARK  128  A    between atoms: _346  and  _349
REMARK  129  A    between atoms: _349  and  _350
REMARK  130  A    between atoms: _353  and  _355
REMARK  131  A    between atoms: _355  and  _356
REMARK  132  A    between atoms: _355  and  _358
REMARK  133  A    between atoms: _358  and  _359
REMARK  134  A    between atoms: _359  and  _360
REMARK  135  A    between atoms: _360  and  _361
REMARK  136  A    between atoms: _370  and  _372
REMARK  137  A    between atoms: _372  and  _373
REMARK  138  A    between atoms: _372  and  _375
REMARK  139  A    between atoms: _375  and  _376
REMARK  140  A    between atoms: _379  and  _381
REMARK  141  A    between atoms: _381  and  _382
REMARK  142  A    between atoms: _381  and  _384
REMARK  143  A    between atoms: _384  and  _385
REMARK  144  A    between atoms: _388  and  _390
REMARK  145  A    between atoms: _390  and  _391
REMARK  146  A    between atoms: _394  and  _396
REMARK  147  A    between atoms: _396  and  _397
REMARK  148  A    between atoms: _396  and  _399
REMARK  149  A    between atoms: _399  and  _400
REMARK  150  A    between atoms: _402  and  _404
REMARK  151  A    between atoms: _404  and  _405
REMARK  152  A    between atoms: _404  and  _407
REMARK  153  A    between atoms: _407  and  _408
REMARK  154  A    between atoms: _408  and  _409
REMARK  155  A    between atoms: _409  and  _410
REMARK  156  A    between atoms: _410  and  _411
REMARK  157  A    between atoms: _415  and  _417
REMARK  158  A    between atoms: _417  and  _418
REMARK  159  A    between atoms: _417  and  _420
REMARK  160  A    between atoms: _420  and  _421
REMARK  161  A    between atoms: _426  and  _428
REMARK  162  A    between atoms: _428  and  _429
REMARK  163  A    between atoms: _428  and  _431
REMARK  164  A    between atoms: _431  and  _432
REMARK  165  A    between atoms: _432  and  _433
REMARK  166  A    between atoms: _436  and  _438
REMARK  167  A    between atoms: _438  and  _439
REMARK  168  A    between atoms: _438  and  _441
REMARK  169  A    between atoms: _444  and  _446
REMARK  170  A    between atoms: _446  and  _447
REMARK  171  A    between atoms: _446  and  _449
REMARK  172  A    between atoms: _449  and  _450
REMARK  173  A    between atoms: _453  and  _455
REMARK  174  A    between atoms: _455  and  _456
REMARK  175  A    between atoms: _455  and  _458
REMARK  176  A    between atoms: _458  and  _459
REMARK  177  A    between atoms: _462  and  _464
REMARK  178  A    between atoms: _464  and  _465
REMARK  179  A    between atoms: _464  and  _467
REMARK  180  A    between atoms: _467  and  _468
REMARK  181  A    between atoms: _471  and  _473
REMARK  182  A    between atoms: _473  and  _474
REMARK  183  A    between atoms: _476  and  _478
REMARK  184  A    between atoms: _478  and  _479
REMARK  185  A    between atoms: _478  and  _481
REMARK  186  A    between atoms: _481  and  _482
REMARK  187  A    between atoms: _482  and  _483
REMARK  188  A    between atoms: _486  and  _488
REMARK  189  A    between atoms: _488  and  _489
REMARK  190  A    between atoms: _488  and  _491
REMARK  191  A    between atoms: _491  and  _492
REMARK  192  A    between atoms: _495  and  _497
REMARK  193  A    between atoms: _497  and  _498
REMARK  194  A    between atoms: _497  and  _500
REMARK  195  A    between atoms: _500  and  _501
REMARK  196  A    between atoms: _507  and  _509
REMARK  197  A    between atoms: _509  and  _510
REMARK  198  A    between atoms: _509  and  _512
REMARK  199  A    between atoms: _512  and  _513
REMARK  200  A    between atoms: _518  and  _520
REMARK  201  A    between atoms: _520  and  _521
REMARK  202  A    between atoms: _520  and  _523
REMARK  203  A    between atoms: _523  and  _524
REMARK  204  A    between atoms: _529  and  _531
REMARK  205  A    between atoms: _531  and  _532
REMARK  206  A    between atoms: _531  and  _534
REMARK  207  A    between atoms: _534  and  _535
REMARK  208  A    between atoms: _538  and  _540
REMARK  209  A    between atoms: _540  and  _541
REMARK  210  A    between atoms: _540  and  _543
REMARK  211  A    between atoms: _543  and  _544
REMARK  212  A    between atoms: _549  and  _551
REMARK  213  A    between atoms: _551  and  _552
REMARK  214  A    between atoms: _551  and  _554
REMARK  215  A    between atoms: _554  and  _555
REMARK  216  A    between atoms: _555  and  _556
REMARK  217  A    between atoms: _556  and  _557
REMARK  218  A    between atoms: _566  and  _568
REMARK  219  A    between atoms: _568  and  _569
REMARK  220  A    between atoms: _571  and  _573
REMARK  221  A    between atoms: _573  and  _574
REMARK  222  A    between atoms: _573  and  _576
REMARK  223  A    between atoms: _576  and  _577
REMARK  224  A    between atoms: _582  and  _584
REMARK  225  A    between atoms: _584  and  _585
REMARK  226  A    between atoms: _587  and  _589
REMARK  227  A    between atoms: _589  and  _590
REMARK  228  A    between atoms: _593  and  _595
REMARK  229  A    between atoms: _595  and  _596
REMARK  230  A    between atoms: _598  and  _600
REMARK  231  A    between atoms: _600  and  _601
REMARK  232  A    between atoms: _600  and  _603
REMARK  233  A    between atoms: _603  and  _604
REMARK  234  A    between atoms: _604  and  _605
REMARK  235  A    between atoms: _605  and  _606
REMARK  236  A    between atoms: _615  and  _617
REMARK  237  A    between atoms: _617  and  _618
REMARK  238  A    between atoms: _617  and  _620
REMARK  239  A    between atoms: _620  and  _621
REMARK  240  A    between atoms: _624  and  _626
REMARK  241  A    between atoms: _626  and  _627
REMARK  242  A    between atoms: _626  and  _629
REMARK  243  A    between atoms: _629  and  _630
REMARK                            x       y       z     vdW  Elec       q    Type
REMARK                         _______ _______ _______ _____ _____    ______ ____
ROOT
ATOM      1  CB  PHE A   1       9.586  39.149  23.140  0.00  0.00    +0.051 C 
ENDROOT
BRANCH   1   2
ATOM      2  CG  PHE A   1       8.079  39.013  22.896  0.00  0.00    -0.020 A 
ATOM      3  CD2 PHE A   1       7.268  40.135  22.879  0.00  0.00    -0.004 A 
ATOM      4  CE2 PHE A   1       5.932  39.993  22.593  0.00  0.00    -0.000 A 
ATOM      5  CZ  PHE A   1       5.391  38.735  22.324  0.00  0.00    -0.000 A 
ATOM      6  CE1 PHE A   1       6.194  37.615  22.343  0.00  0.00    -0.000 A 
ATOM      7  CD1 PHE A   1       7.530  37.745  22.628  0.00  0.00    -0.004 A 
ENDBRANCH   1   2
BRANCH   1   8
ATOM      8  CA  PHE A   1      10.032  40.009  24.317  0.00  0.00    +0.137 C 
BRANCH   8   9
ATOM      9  N   PHE A   1      11.498  40.101  24.311  0.00  0.00    -0.239 NA
ATOM     10  H   PHE A   1      11.988  39.612  23.535  0.00  0.00    +0.142 HD
ENDBRANCH   8   9
BRANCH   8  11
ATOM     11  C   PHE A   1       9.512  39.402  25.616  0.00  0.00    +0.224 C 
ATOM     12  O   PHE A   1       9.827  38.259  25.981  0.00  0.00    -0.287 OA
ENDBRANCH   8  11
ENDBRANCH   1   8
TORSDOF 4
REMARK  Name = ../refined-set-2016/1ppi/1ppi_pocket.pdb
REMARK  243 active torsions:
REMARK  status: ('A' for Active; 'I' for Inactive)
REMARK    1  A    between atoms: _1  and  _3
REMARK    2  A    between atoms: _3  and  _4
REMARK    3  A    between atoms: _3  and  _6
REMARK    4  A    between atoms: _6  and  _7
REMARK    5  A    between atoms: _12  and  _14
REMARK    6  A    between atoms: _14  and  _15
REMARK    7  A    between atoms: _14  and  _17
REMARK    8  A    between atoms: _17  and  _18
REMARK    9  A    between atoms: _24  and  _26
REMARK   10  A    between atoms: _26  and  _27
REMARK   11  A    between atoms: _26  and  _29
REMARK   12  A    between atoms: _29  and  _30
REMARK   13  A    between atoms: _30  and  _31
REMARK   14  A    between atoms: _37  and  _38
REMARK   15  A    between atoms: _43  and  _45
REMARK   16  A    between atoms: _45  and  _46
REMARK   17  A    between atoms: _45  and  _48
REMARK   18  A    between atoms: _48  and  _49
REMARK   19  A    between atoms: _54  and  _56
REMARK   20  A    between atoms: _56  and  _57
REMARK   21  A    between atoms: _56  and  _59
REMARK   22  A    between atoms: _62  and  _64
REMARK   23  A    between atoms: _64  and  _65
REMARK   24  A    between atoms: _64  and  _67
REMARK   25  A    between atoms: _71  and  _72
REMARK   26  A    between atoms: _78  and  _79
REMARK   27  A    between atoms: _84  and  _86
REMARK   28  A    between atoms: _86  and  _87
REMARK   29  A    between atoms: _86  and  _89
REMARK   30  A    between atoms: _89  and  _90
REMARK   31  A    between atoms: _100  and  _102
REMARK   32  A    between atoms: _102  and  _103
REMARK   33  A    between atoms: _102  and  _105
REMARK   34  A    between atoms: _105  and  _106
REMARK   35  A    between atoms: _116  and  _118
REMARK   36  A    between atoms: _118  and  _119
REMARK   37  A    between atoms: _118  and  _121
REMARK   38  A    between atoms: _121  and  _122
REMARK   39  A    between atoms: _122  and  _123
REMARK   40  A    between atoms: _126  and  _128
REMARK   41  A    between atoms: _128  and  _129
REMARK   42  A    between atoms: _128  and  _131
REMARK   43  A    between atoms: _131  and  _132
REMARK   44  A    between atoms: _132  and  _133
REMARK   45  A    between atoms: _133  and  _134
REMARK   46  A    between atoms: _143  and  _145
REMARK   47  A    between atoms: _145  and  _146
REMARK   48  A    between atoms: _145  and  _148
REMARK   49  A    between atoms: _148  and  _149
REMARK   50  A    between atoms: _154  and  _155
REMARK   51  A    between atoms: _157  and  _159
REMARK   52  A    between atoms: _159  and  _160
REMARK   53  A    between atoms: _159  and  _162
REMARK   54  A    between atoms: _162  and  _163
REMARK   55  A    between atoms: _163  and  _164
REMARK   56  A    between atoms: _170  and  _171
REMARK   57  A    between atoms: _176  and  _178
REMARK   58  A    between atoms: _178  and  _179
REMARK   59  A    between atoms: _178  and  _181
REMARK   60  A    between atoms: _181  and  _182
REMARK   61  A    between atoms: _185  and  _187
REMARK   62  A    between atoms: _187  and  _188
REMARK   63  A    between atoms: _191  and  _193
REMARK   64  A    between atoms: _193  and  _194
REMARK   65  A    between atoms: _193  and  _196
REMARK   66  A    between atoms: _199  and  _201
REMARK   67  A    between atoms: _201  and  _202
REMARK   68  A    between atoms: _201  and  _204
REMARK   69  A    between atoms: _204  and  _205
REMARK   70  A    between atoms: _208  and  _210
REMARK   71  A    between atoms: _210  and  _211
REMARK   72  A    between atoms: _210  and  _213
REMARK   73  A    between atoms: _213  and  _214
REMARK   74  A    between atoms: _219  and  _221
REMARK   75  A    between atoms: _221  and  _222
REMARK   76  A    between atoms: _221  and  _224
REMARK   77  A    between atoms: _224  and  _225
REMARK   78  A    between atoms: _230  and  _232
REMARK   79  A    between atoms: _232  and  _233
REMARK   80  A    between atoms: _232  and  _235
REMARK   81  A    between atoms: _235  and  _236
REMARK   82  A    between atoms: _236  and  _237
REMARK   83  A    between atoms: _239  and  _241
REMARK   84  A    between atoms: _241  and  _242
REMARK   85  A    between atoms: _241  and  _244
REMARK   86  A    between atoms: _246  and  _248
REMARK   87  A    between atoms: _248  and  _249
REMARK   88  A    between atoms: _251  and  _253
REMARK   89  A    between atoms: _253  and  _254
REMARK   90  A    between atoms: _253  and  _256
REMARK   91  A    between atoms: _256  and  _257
REMARK   92  A    between atoms: _259  and  _261
REMARK   93  A    between atoms: _261  and  _262
REMARK   94  A    between atoms: _264  and  _266
REMARK   95  A    between atoms: _266  and  _267
REMARK   96  A    between atoms: _270  and  _272
REMARK   97  A    between atoms: _272  and  _273
REMARK   98  A    between atoms: _272  and  _275
REMARK   99  A    between atoms: _275  and  _276
REMARK  100  A    between atoms: _279  and  _281
REMARK  101  A    between atoms: _281  and  _282
REMARK  102  A    between atoms: _281  and  _284
REMARK  103  A    between atoms: _284  and  _285
REMARK  104  A    between atoms: _290  and  _291
REMARK  105  A    between atoms: _293  and  _295
REMARK  106  A    between atoms: _295  and  _296
REMARK  107  A    between atoms: _295  and  _298
REMARK  108  A    between atoms: _301  and  _303
REMARK  109  A    between atoms: _303  and  _304
REMARK  110  A    between atoms: _303  and  _306
REMARK  111  A    between atoms: _306  and  _307
REMARK  112  A    between atoms: _307  and  _308
REMARK  113  A    between atoms: _313  and  _315
REMARK  114  A    between atoms: _315  and  _316
REMARK  115  A    between atoms: _315  and  _318
REMARK  116  A    between atoms: _318  and  _319
REMARK  117  A    between atoms: _322  and  _324
REMARK  118  A    between atoms: _324  and  _325
REMARK  119  A    between atoms: _324  and  _327
REMARK  120  A    between atoms: _330  and  _332
REMARK  121  A    between atoms: _332  and  _333
REMARK  122  A    between atoms: _335  and  _337
REMARK  123  A    between atoms: _337  and  _338
REMARK  124  A    between atoms: _337  and  _340
REMARK  125  A    between atoms: _340  and  _341
REMARK  126  A    between atoms: _344  and  _346
REMARK  127  A    between atoms: _346  and  _347
REMARK  128  A    between atoms: _346  and  _349
REMARK  129  A    between atoms: _349  and  _350
REMARK  130  A    between atoms: _353  and  _355
REMARK  131  A    between atoms: _355  and  _356
REMARK  132  A    between atoms: _355  and  _358
REMARK  133  A    between atoms: _358  and  _359
REMARK  134  A    between atoms: _359  and  _360
REMARK  135  A    between atoms: _360  and  _361
REMARK  136  A    between atoms: _370  and  _372
REMARK  137  A    between atoms: _372  and  _373
REMARK  138  A    between atoms: _372  and  _375
REMARK  139  A    between atoms: _375  and  _376
REMARK  140  A    between atoms: _379  and  _381
REMARK  141  A    between atoms: _381  and  _382
REMARK  142  A    between atoms: _381  and  _384
REMARK  143  A    between atoms: _384  and  _385
REMARK  144  A    between atoms: _388  and  _390
REMARK  145  A    between atoms: _390  and  _391
REMARK  146  A    between atoms: _394  and  _396
REMARK  147  A    between atoms: _396  and  _397
REMARK  148  A    between atoms: _396  and  _399
REMARK  149  A    between atoms: _399  and  _400
REMARK  150  A    between atoms: _402  and  _404
REMARK  151  A    between atoms: _404  and  _405
REMARK  152  A    between atoms: _404  and  _407
REMARK  153  A    between atoms: _407  and  _408
REMARK  154  A    between atoms: _408  and  _409
REMARK  155  A    between atoms: _409  and  _410
REMARK  156  A    between atoms: _410  and  _411
REMARK  157  A    between atoms: _415  and  _417
REMARK  158  A    between atoms: _417  and  _418
REMARK  159  A    between atoms: _417  and  _420
REMARK  160  A    between atoms: _420  and  _421
REMARK  161  A    between atoms: _426  and  _428
REMARK  162  A    between atoms: _428  and  _429
REMARK  163  A    between atoms: _428  and  _431
REMARK  164  A    between atoms: _431  and  _432
REMARK  165  A    between atoms: _432  and  _433
REMARK  166  A    between atoms: _436  and  _438
REMARK  167  A    between atoms: _438  and  _439
REMARK  168  A    between atoms: _438  and  _441
REMARK  169  A    between atoms: _444  and  _446
REMARK  170  A    between atoms: _446  and  _447
REMARK  171  A    between atoms: _446  and  _449
REMARK  172  A    between atoms: _449  and  _450
REMARK  173  A    between atoms: _453  and  _455
REMARK  174  A    between atoms: _455  and  _456
REMARK  175  A    between atoms: _455  and  _458
REMARK  176  A    between atoms: _458  and  _459
REMARK  177  A    between atoms: _462  and  _464
REMARK  178  A    between atoms: _464  and  _465
REMARK  179  A    between atoms: _464  and  _467
REMARK  180  A    between atoms: _467  and  _468
REMARK  181  A    between atoms: _471  and  _473
REMARK  182  A    between atoms: _473  and  _474
REMARK  183  A    between atoms: _476  and  _478
REMARK  184  A    between atoms: _478  and  _479
REMARK  185  A    between atoms: _478  and  _481
REMARK  186  A    between atoms: _481  and  _482
REMARK  187  A    between atoms: _482  and  _483
REMARK  188  A    between atoms: _486  and  _488
REMARK  189  A    between atoms: _488  and  _489
REMARK  190  A    between atoms: _488  and  _491
REMARK  191  A    between atoms: _491  and  _492
REMARK  192  A    between atoms: _495  and  _497
REMARK  193  A    between atoms: _497  and  _498
REMARK  194  A    between atoms: _497  and  _500
REMARK  195  A    between atoms: _500  and  _501
REMARK  196  A    between atoms: _507  and  _509
REMARK  197  A    between atoms: _509  and  _510
REMARK  198  A    between atoms: _509  and  _512
REMARK  199  A    between atoms: _512  and  _513
REMARK  200  A    between atoms: _518  and  _520
REMARK  201  A    between atoms: _520  and  _521
REMARK  202  A    between atoms: _520  and  _523
REMARK  203  A    between atoms: _523  and  _524
REMARK  204  A    between atoms: _529  and  _531
REMARK  205  A    between atoms: _531  and  _532
REMARK  206  A    between atoms: _531  and  _534
REMARK  207  A    between atoms: _534  and  _535
REMARK  208  A    between atoms: _538  and  _540
REMARK  209  A    between atoms: _540  and  _541
REMARK  210  A    between atoms: _540  and  _543
REMARK  211  A    between atoms: _543  and  _544
REMARK  212  A    between atoms: _549  and  _551
REMARK  213  A    between atoms: _551  and  _552
REMARK  214  A    between atoms: _551  and  _554
REMARK  215  A    between atoms: _554  and  _555
REMARK  216  A    between atoms: _555  and  _556
REMARK  217  A    between atoms: _556  and  _557
REMARK  218  A    between atoms: _566  and  _568
REMARK  219  A    between atoms: _568  and  _569
REMARK  220  A    between atoms: _571  and  _573
REMARK  221  A    between atoms: _573  and  _574
REMARK  222  A    between atoms: _573  and  _576
REMARK  223  A    between atoms: _576  and  _577
REMARK  224  A    between atoms: _582  and  _584
REMARK  225  A    between atoms: _584  and  _585
REMARK  226  A    between atoms: _587  and  _589
REMARK  227  A    between atoms: _589  and  _590
REMARK  228  A    between atoms: _593  and  _595
REMARK  229  A    between atoms: _595  and  _596
REMARK  230  A    between atoms: _598  and  _600
REMARK  231  A    between atoms: _600  and  _601
REMARK  232  A    between atoms: _600  and  _603
REMARK  233  A    between atoms: _603  and  _604
REMARK  234  A    between atoms: _604  and  _605
REMARK  235  A    between atoms: _605  and  _606
REMARK  236  A    between atoms: _615  and  _617
REMARK  237  A    between atoms: _617  and  _618
REMARK  238  A    between atoms: _617  and  _620
REMARK  239  A    between atoms: _620  and  _621
REMARK  240  A    between atoms: _624  and  _626
REMARK  241  A    between atoms: _626  and  _627
REMARK  242  A    between atoms: _626  and  _629
REMARK  243  A    between atoms: _629  and  _630
REMARK                            x       y       z     vdW  Elec       q    Type
REMARK                         _______ _______ _______ _____ _____    ______ ____
ROOT
ATOM      1  CB  GLN A   1      13.375  46.298  21.162  0.00  0.00    +0.035 C 
ENDROOT
BRANCH   1   2
ATOM      2  CA  GLN A   1      13.954  46.650  22.543  0.00  0.00    +0.134 C 
BRANCH   2   3
ATOM      3  N   GLN A   1      15.313  46.163  22.696  0.00  0.00    -0.239 NA
ATOM      4  H   GLN A   1      15.606  45.338  22.135  0.00  0.00    +0.142 HD
ENDBRANCH   2   3
BRANCH   2   5
ATOM      5  C   GLN A   1      13.124  45.943  23.624  0.00  0.00    +0.224 C 
ATOM      6  O   GLN A   1      13.053  44.708  23.661  0.00  0.00    -0.287 OA
ENDBRANCH   2   5
ENDBRANCH   1   2
BRANCH   1   7
ATOM      7  CG  GLN A   1      11.942  46.820  21.005  0.00  0.00    +0.087 C 
BRANCH   7   8
ATOM      8  CD  GLN A   1      11.258  46.254  19.781  0.00  0.00    +0.219 C 
ATOM      9  NE2 GLN A   1      10.069  45.705  19.783  0.00  0.00    -0.329 N 
ATOM     10 HE21 GLN A   1       9.504  45.692  20.656  0.00  0.00    +0.145 HD
ATOM     11 HE22 GLN A   1       9.690  45.282  18.912  0.00  0.00    +0.145 HD
ATOM     12  OE1 GLN A   1      11.861  46.234  18.732  0.00  0.00    -0.275 OA
ENDBRANCH   7   8
ENDBRANCH   1   7
TORSDOF 5
REMARK  Name = ../refined-set-2016/1ppi/1ppi_pocket.pdb
REMARK  243 active torsions:
REMARK  status: ('A' for Active; 'I' for Inactive)
REMARK    1  A    between atoms: _1  and  _3
REMARK    2  A    between atoms: _3  and  _4
REMARK    3  A    between atoms: _3  and  _6
REMARK    4  A    between atoms: _6  and  _7
REMARK    5  A    between atoms: _12  and  _14
REMARK    6  A    between atoms: _14  and  _15
REMARK    7  A    between atoms: _14  and  _17
REMARK    8  A    between atoms: _17  and  _18
REMARK    9  A    between atoms: _24  and  _26
REMARK   10  A    between atoms: _26  and  _27
REMARK   11  A    between atoms: _26  and  _29
REMARK   12  A    between atoms: _29  and  _30
REMARK   13  A    between atoms: _30  and  _31
REMARK   14  A    between atoms: _37  and  _38
REMARK   15  A    between atoms: _43  and  _45
REMARK   16  A    between atoms: _45  and  _46
REMARK   17  A    between atoms: _45  and  _48
REMARK   18  A    between atoms: _48  and  _49
REMARK   19  A    between atoms: _54  and  _56
REMARK   20  A    between atoms: _56  and  _57
REMARK   21  A    between atoms: _56  and  _59
REMARK   22  A    between atoms: _62  and  _64
REMARK   23  A    between atoms: _64  and  _65
REMARK   24  A    between atoms: _64  and  _67
REMARK   25  A    between atoms: _71  and  _72
REMARK   26  A    between atoms: _78  and  _79
REMARK   27  A    between atoms: _84  and  _86
REMARK   28  A    between atoms: _86  and  _87
REMARK   29  A    between atoms: _86  and  _89
REMARK   30  A    between atoms: _89  and  _90
REMARK   31  A    between atoms: _100  and  _102
REMARK   32  A    between atoms: _102  and  _103
REMARK   33  A    between atoms: _102  and  _105
REMARK   34  A    between atoms: _105  and  _106
REMARK   35  A    between atoms: _116  and  _118
REMARK   36  A    between atoms: _118  and  _119
REMARK   37  A    between atoms: _118  and  _121
REMARK   38  A    between atoms: _121  and  _122
REMARK   39  A    between atoms: _122  and  _123
REMARK   40  A    between atoms: _126  and  _128
REMARK   41  A    between atoms: _128  and  _129
REMARK   42  A    between atoms: _128  and  _131
REMARK   43  A    between atoms: _131  and  _132
REMARK   44  A    between atoms: _132  and  _133
REMARK   45  A    between atoms: _133  and  _134
REMARK   46  A    between atoms: _143  and  _145
REMARK   47  A    between atoms: _145  and  _146
REMARK   48  A    between atoms: _145  and  _148
REMARK   49  A    between atoms: _148  and  _149
REMARK   50  A    between atoms: _154  and  _155
REMARK   51  A    between atoms: _157  and  _159
REMARK   52  A    between atoms: _159  and  _160
REMARK   53  A    between atoms: _159  and  _162
REMARK   54  A    between atoms: _162  and  _163
REMARK   55  A    between atoms: _163  and  _164
REMARK   56  A    between atoms: _170  and  _171
REMARK   57  A    between atoms: _176  and  _178
REMARK   58  A    between atoms: _178  and  _179
REMARK   59  A    between atoms: _178  and  _181
REMARK   60  A    between atoms: _181  and  _182
REMARK   61  A    between atoms: _185  and  _187
REMARK   62  A    between atoms: _187  and  _188
REMARK   63  A    between atoms: _191  and  _193
REMARK   64  A    between atoms: _193  and  _194
REMARK   65  A    between atoms: _193  and  _196
REMARK   66  A    between atoms: _199  and  _201
REMARK   67  A    between atoms: _201  and  _202
REMARK   68  A    between atoms: _201  and  _204
REMARK   69  A    between atoms: _204  and  _205
REMARK   70  A    between atoms: _208  and  _210
REMARK   71  A    between atoms: _210  and  _211
REMARK   72  A    between atoms: _210  and  _213
REMARK   73  A    between atoms: _213  and  _214
REMARK   74  A    between atoms: _219  and  _221
REMARK   75  A    between atoms: _221  and  _222
REMARK   76  A    between atoms: _221  and  _224
REMARK   77  A    between atoms: _224  and  _225
REMARK   78  A    between atoms: _230  and  _232
REMARK   79  A    between atoms: _232  and  _233
REMARK   80  A    between atoms: _232  and  _235
REMARK   81  A    between atoms: _235  and  _236
REMARK   82  A    between atoms: _236  and  _237
REMARK   83  A    between atoms: _239  and  _241
REMARK   84  A    between atoms: _241  and  _242
REMARK   85  A    between atoms: _241  and  _244
REMARK   86  A    between atoms: _246  and  _248
REMARK   87  A    between atoms: _248  and  _249
REMARK   88  A    between atoms: _251  and  _253
REMARK   89  A    between atoms: _253  and  _254
REMARK   90  A    between atoms: _253  and  _256
REMARK   91  A    between atoms: _256  and  _257
REMARK   92  A    between atoms: _259  and  _261
REMARK   93  A    between atoms: _261  and  _262
REMARK   94  A    between atoms: _264  and  _266
REMARK   95  A    between atoms: _266  and  _267
REMARK   96  A    between atoms: _270  and  _272
REMARK   97  A    between atoms: _272  and  _273
REMARK   98  A    between atoms: _272  and  _275
REMARK   99  A    between atoms: _275  and  _276
REMARK  100  A    between atoms: _279  and  _281
REMARK  101  A    between atoms: _281  and  _282
REMARK  102  A    between atoms: _281  and  _284
REMARK  103  A    between atoms: _284  and  _285
REMARK  104  A    between atoms: _290  and  _291
REMARK  105  A    between atoms: _293  and  _295
REMARK  106  A    between atoms: _295  and  _296
REMARK  107  A    between atoms: _295  and  _298
REMARK  108  A    between atoms: _301  and  _303
REMARK  109  A    between atoms: _303  and  _304
REMARK  110  A    between atoms: _303  and  _306
REMARK  111  A    between atoms: _306  and  _307
REMARK  112  A    between atoms: _307  and  _308
REMARK  113  A    between atoms: _313  and  _315
REMARK  114  A    between atoms: _315  and  _316
REMARK  115  A    between atoms: _315  and  _318
REMARK  116  A    between atoms: _318  and  _319
REMARK  117  A    between atoms: _322  and  _324
REMARK  118  A    between atoms: _324  and  _325
REMARK  119  A    between atoms: _324  and  _327
REMARK  120  A    between atoms: _330  and  _332
REMARK  121  A    between atoms: _332  and  _333
REMARK  122  A    between atoms: _335  and  _337
REMARK  123  A    between atoms: _337  and  _338
REMARK  124  A    between atoms: _337  and  _340
REMARK  125  A    between atoms: _340  and  _341
REMARK  126  A    between atoms: _344  and  _346
REMARK  127  A    between atoms: _346  and  _347
REMARK  128  A    between atoms: _346  and  _349
REMARK  129  A    between atoms: _349  and  _350
REMARK  130  A    between atoms: _353  and  _355
REMARK  131  A    between atoms: _355  and  _356
REMARK  132  A    between atoms: _355  and  _358
REMARK  133  A    between atoms: _358  and  _359
REMARK  134  A    between atoms: _359  and  _360
REMARK  135  A    between atoms: _360  and  _361
REMARK  136  A    between atoms: _370  and  _372
REMARK  137  A    between atoms: _372  and  _373
REMARK  138  A    between atoms: _372  and  _375
REMARK  139  A    between atoms: _375  and  _376
REMARK  140  A    between atoms: _379  and  _381
REMARK  141  A    between atoms: _381  and  _382
REMARK  142  A    between atoms: _381  and  _384
REMARK  143  A    between atoms: _384  and  _385
REMARK  144  A    between atoms: _388  and  _390
REMARK  145  A    between atoms: _390  and  _391
REMARK  146  A    between atoms: _394  and  _396
REMARK  147  A    between atoms: _396  and  _397
REMARK  148  A    between atoms: _396  and  _399
REMARK  149  A    between atoms: _399  and  _400
REMARK  150  A    between atoms: _402  and  _404
REMARK  151  A    between atoms: _404  and  _405
REMARK  152  A    between atoms: _404  and  _407
REMARK  153  A    between atoms: _407  and  _408
REMARK  154  A    between atoms: _408  and  _409
REMARK  155  A    between atoms: _409  and  _410
REMARK  156  A    between atoms: _410  and  _411
REMARK  157  A    between atoms: _415  and  _417
REMARK  158  A    between atoms: _417  and  _418
REMARK  159  A    between atoms: _417  and  _420
REMARK  160  A    between atoms: _420  and  _421
REMARK  161  A    between atoms: _426  and  _428
REMARK  162  A    between atoms: _428  and  _429
REMARK  163  A    between atoms: _428  and  _431
REMARK  164  A    between atoms: _431  and  _432
REMARK  165  A    between atoms: _432  and  _433
REMARK  166  A    between atoms: _436  and  _438
REMARK  167  A    between atoms: _438  and  _439
REMARK  168  A    between atoms: _438  and  _441
REMARK  169  A    between atoms: _444  and  _446
REMARK  170  A    between atoms: _446  and  _447
REMARK  171  A    between atoms: _446  and  _449
REMARK  172  A    between atoms: _449  and  _450
REMARK  173  A    between atoms: _453  and  _455
REMARK  174  A    between atoms: _455  and  _456
REMARK  175  A    between atoms: _455  and  _458
REMARK  176  A    between atoms: _458  and  _459
REMARK  177  A    between atoms: _462  and  _464
REMARK  178  A    between atoms: _464  and  _465
REMARK  179  A    between atoms: _464  and  _467
REMARK  180  A    between atoms: _467  and  _468
REMARK  181  A    between atoms: _471  and  _473
REMARK  182  A    between atoms: _473  and  _474
REMARK  183  A    between atoms: _476  and  _478
REMARK  184  A    between atoms: _478  and  _479
REMARK  185  A    between atoms: _478  and  _481
REMARK  186  A    between atoms: _481  and  _482
REMARK  187  A    between atoms: _482  and  _483
REMARK  188  A    between atoms: _486  and  _488
REMARK  189  A    between atoms: _488  and  _489
REMARK  190  A    between atoms: _488  and  _491
REMARK  191  A    between atoms: _491  and  _492
REMARK  192  A    between atoms: _495  and  _497
REMARK  193  A    between atoms: _497  and  _498
REMARK  194  A    between atoms: _497  and  _500
REMARK  195  A    between atoms: _500  and  _501
REMARK  196  A    between atoms: _507  and  _509
REMARK  197  A    between atoms: _509  and  _510
REMARK  198  A    between atoms: _509  and  _512
REMARK  199  A    between atoms: _512  and  _513
REMARK  200  A    between atoms: _518  and  _520
REMARK  201  A    between atoms: _520  and  _521
REMARK  202  A    between atoms: _520  and  _523
REMARK  203  A    between atoms: _523  and  _524
REMARK  204  A    between atoms: _529  and  _531
REMARK  205  A    between atoms: _531  and  _532
REMARK  206  A    between atoms: _531  and  _534
REMARK  207  A    between atoms: _534  and  _535
REMARK  208  A    between atoms: _538  and  _540
REMARK  209  A    between atoms: _540  and  _541
REMARK  210  A    between atoms: _540  and  _543
REMARK  211  A    between atoms: _543  and  _544
REMARK  212  A    between atoms: _549  and  _551
REMARK  213  A    between atoms: _551  and  _552
REMARK  214  A    between atoms: _551  and  _554
REMARK  215  A    between atoms: _554  and  _555
REMARK  216  A    between atoms: _555  and  _556
REMARK  217  A    between atoms: _556  and  _557
REMARK  218  A    between atoms: _566  and  _568
REMARK  219  A    between atoms: _568  and  _569
REMARK  220  A    between atoms: _571  and  _573
REMARK  221  A    between atoms: _573  and  _574
REMARK  222  A    between atoms: _573  and  _576
REMARK  223  A    between atoms: _576  and  _577
REMARK  224  A    between atoms: _582  and  _584
REMARK  225  A    between atoms: _584  and  _585
REMARK  226  A    between atoms: _587  and  _589
REMARK  227  A    between atoms: _589  and  _590
REMARK  228  A    between atoms: _593  and  _595
REMARK  229  A    between atoms: _595  and  _596
REMARK  230  A    between atoms: _598  and  _600
REMARK  231  A    between atoms: _600  and  _601
REMARK  232  A    between atoms: _600  and  _603
REMARK  233  A    between atoms: _603  and  _604
REMARK  234  A    between atoms: _604  and  _605
REMARK  235  A    between atoms: _605  and  _606
REMARK  236  A    between atoms: _615  and  _617
REMARK  237  A    between atoms: _617  and  _618
REMARK  238  A    between atoms: _617  and  _620
REMARK  239  A    between atoms: _620  and  _621
REMARK  240  A    between atoms: _624  and  _626
REMARK  241  A    between atoms: _626  and  _627
REMARK  242  A    between atoms: _626  and  _629
REMARK  243  A    between atoms: _629  and  _630
REMARK                            x       y       z     vdW  Elec       q    Type
REMARK                         _______ _______ _______ _____ _____    ______ ____
ROOT
ATOM      1  N   PRO A   1       6.128  47.082  25.999  0.00  0.00    -0.212 NA
ATOM      2  CA  PRO A   1       5.567  48.378  26.405  0.00  0.00    +0.137 C 
ATOM      3  CB  PRO A   1       4.146  48.309  25.939  0.00  0.00    +0.027 C 
ATOM      4  CG  PRO A   1       4.228  47.440  24.690  0.00  0.00    +0.021 C 
ATOM      5  CD  PRO A   1       5.184  46.369  25.145  0.00  0.00    +0.089 C 
ENDROOT
BRANCH   2   6
ATOM      6  C   PRO A   1       5.706  48.551  27.912  0.00  0.00    +0.224 C 
ATOM      7  O   PRO A   1       5.190  47.713  28.662  0.00  0.00    -0.287 OA
ENDBRANCH   2   6
TORSDOF 1
REMARK  Name = ../refined-set-2016/1ppi/1ppi_pocket.pdb
REMARK  243 active torsions:
REMARK  status: ('A' for Active; 'I' for Inactive)
REMARK    1  A    between atoms: _1  and  _3
REMARK    2  A    between atoms: _3  and  _4
REMARK    3  A    between atoms: _3  and  _6
REMARK    4  A    between atoms: _6  and  _7
REMARK    5  A    between atoms: _12  and  _14
REMARK    6  A    between atoms: _14  and  _15
REMARK    7  A    between atoms: _14  and  _17
REMARK    8  A    between atoms: _17  and  _18
REMARK    9  A    between atoms: _24  and  _26
REMARK   10  A    between atoms: _26  and  _27
REMARK   11  A    between atoms: _26  and  _29
REMARK   12  A    between atoms: _29  and  _30
REMARK   13  A    between atoms: _30  and  _31
REMARK   14  A    between atoms: _37  and  _38
REMARK   15  A    between atoms: _43  and  _45
REMARK   16  A    between atoms: _45  and  _46
REMARK   17  A    between atoms: _45  and  _48
REMARK   18  A    between atoms: _48  and  _49
REMARK   19  A    between atoms: _54  and  _56
REMARK   20  A    between atoms: _56  and  _57
REMARK   21  A    between atoms: _56  and  _59
REMARK   22  A    between atoms: _62  and  _64
REMARK   23  A    between atoms: _64  and  _65
REMARK   24  A    between atoms: _64  and  _67
REMARK   25  A    between atoms: _71  and  _72
REMARK   26  A    between atoms: _78  and  _79
REMARK   27  A    between atoms: _84  and  _86
REMARK   28  A    between atoms: _86  and  _87
REMARK   29  A    between atoms: _86  and  _89
REMARK   30  A    between atoms: _89  and  _90
REMARK   31  A    between atoms: _100  and  _102
REMARK   32  A    between atoms: _102  and  _103
REMARK   33  A    between atoms: _102  and  _105
REMARK   34  A    between atoms: _105  and  _106
REMARK   35  A    between atoms: _116  and  _118
REMARK   36  A    between atoms: _118  and  _119
REMARK   37  A    between atoms: _118  and  _121
REMARK   38  A    between atoms: _121  and  _122
REMARK   39  A    between atoms: _122  and  _123
REMARK   40  A    between atoms: _126  and  _128
REMARK   41  A    between atoms: _128  and  _129
REMARK   42  A    between atoms: _128  and  _131
REMARK   43  A    between atoms: _131  and  _132
REMARK   44  A    between atoms: _132  and  _133
REMARK   45  A    between atoms: _133  and  _134
REMARK   46  A    between atoms: _143  and  _145
REMARK   47  A    between atoms: _145  and  _146
REMARK   48  A    between atoms: _145  and  _148
REMARK   49  A    between atoms: _148  and  _149
REMARK   50  A    between atoms: _154  and  _155
REMARK   51  A    between atoms: _157  and  _159
REMARK   52  A    between atoms: _159  and  _160
REMARK   53  A    between atoms: _159  and  _162
REMARK   54  A    between atoms: _162  and  _163
REMARK   55  A    between atoms: _163  and  _164
REMARK   56  A    between atoms: _170  and  _171
REMARK   57  A    between atoms: _176  and  _178
REMARK   58  A    between atoms: _178  and  _179
REMARK   59  A    between atoms: _178  and  _181
REMARK   60  A    between atoms: _181  and  _182
REMARK   61  A    between atoms: _185  and  _187
REMARK   62  A    between atoms: _187  and  _188
REMARK   63  A    between atoms: _191  and  _193
REMARK   64  A    between atoms: _193  and  _194
REMARK   65  A    between atoms: _193  and  _196
REMARK   66  A    between atoms: _199  and  _201
REMARK   67  A    between atoms: _201  and  _202
REMARK   68  A    between atoms: _201  and  _204
REMARK   69  A    between atoms: _204  and  _205
REMARK   70  A    between atoms: _208  and  _210
REMARK   71  A    between atoms: _210  and  _211
REMARK   72  A    between atoms: _210  and  _213
REMARK   73  A    between atoms: _213  and  _214
REMARK   74  A    between atoms: _219  and  _221
REMARK   75  A    between atoms: _221  and  _222
REMARK   76  A    between atoms: _221  and  _224
REMARK   77  A    between atoms: _224  and  _225
REMARK   78  A    between atoms: _230  and  _232
REMARK   79  A    between atoms: _232  and  _233
REMARK   80  A    between atoms: _232  and  _235
REMARK   81  A    between atoms: _235  and  _236
REMARK   82  A    between atoms: _236  and  _237
REMARK   83  A    between atoms: _239  and  _241
REMARK   84  A    between atoms: _241  and  _242
REMARK   85  A    between atoms: _241  and  _244
REMARK   86  A    between atoms: _246  and  _248
REMARK   87  A    between atoms: _248  and  _249
REMARK   88  A    between atoms: _251  and  _253
REMARK   89  A    between atoms: _253  and  _254
REMARK   90  A    between atoms: _253  and  _256
REMARK   91  A    between atoms: _256  and  _257
REMARK   92  A    between atoms: _259  and  _261
REMARK   93  A    between atoms: _261  and  _262
REMARK   94  A    between atoms: _264  and  _266
REMARK   95  A    between atoms: _266  and  _267
REMARK   96  A    between atoms: _270  and  _272
REMARK   97  A    between atoms: _272  and  _273
REMARK   98  A    between atoms: _272  and  _275
REMARK   99  A    between atoms: _275  and  _276
REMARK  100  A    between atoms: _279  and  _281
REMARK  101  A    between atoms: _281  and  _282
REMARK  102  A    between atoms: _281  and  _284
REMARK  103  A    between atoms: _284  and  _285
REMARK  104  A    between atoms: _290  and  _291
REMARK  105  A    between atoms: _293  and  _295
REMARK  106  A    between atoms: _295  and  _296
REMARK  107  A    between atoms: _295  and  _298
REMARK  108  A    between atoms: _301  and  _303
REMARK  109  A    between atoms: _303  and  _304
REMARK  110  A    between atoms: _303  and  _306
REMARK  111  A    between atoms: _306  and  _307
REMARK  112  A    between atoms: _307  and  _308
REMARK  113  A    between atoms: _313  and  _315
REMARK  114  A    between atoms: _315  and  _316
REMARK  115  A    between atoms: _315  and  _318
REMARK  116  A    between atoms: _318  and  _319
REMARK  117  A    between atoms: _322  and  _324
REMARK  118  A    between atoms: _324  and  _325
REMARK  119  A    between atoms: _324  and  _327
REMARK  120  A    between atoms: _330  and  _332
REMARK  121  A    between atoms: _332  and  _333
REMARK  122  A    between atoms: _335  and  _337
REMARK  123  A    between atoms: _337  and  _338
REMARK  124  A    between atoms: _337  and  _340
REMARK  125  A    between atoms: _340  and  _341
REMARK  126  A    between atoms: _344  and  _346
REMARK  127  A    between atoms: _346  and  _347
REMARK  128  A    between atoms: _346  and  _349
REMARK  129  A    between atoms: _349  and  _350
REMARK  130  A    between atoms: _353  and  _355
REMARK  131  A    between atoms: _355  and  _356
REMARK  132  A    between atoms: _355  and  _358
REMARK  133  A    between atoms: _358  and  _359
REMARK  134  A    between atoms: _359  and  _360
REMARK  135  A    between atoms: _360  and  _361
REMARK  136  A    between atoms: _370  and  _372
REMARK  137  A    between atoms: _372  and  _373
REMARK  138  A    between atoms: _372  and  _375
REMARK  139  A    between atoms: _375  and  _376
REMARK  140  A    between atoms: _379  and  _381
REMARK  141  A    between atoms: _381  and  _382
REMARK  142  A    between atoms: _381  and  _384
REMARK  143  A    between atoms: _384  and  _385
REMARK  144  A    between atoms: _388  and  _390
REMARK  145  A    between atoms: _390  and  _391
REMARK  146  A    between atoms: _394  and  _396
REMARK  147  A    between atoms: _396  and  _397
REMARK  148  A    between atoms: _396  and  _399
REMARK  149  A    between atoms: _399  and  _400
REMARK  150  A    between atoms: _402  and  _404
REMARK  151  A    between atoms: _404  and  _405
REMARK  152  A    between atoms: _404  and  _407
REMARK  153  A    between atoms: _407  and  _408
REMARK  154  A    between atoms: _408  and  _409
REMARK  155  A    between atoms: _409  and  _410
REMARK  156  A    between atoms: _410  and  _411
REMARK  157  A    between atoms: _415  and  _417
REMARK  158  A    between atoms: _417  and  _418
REMARK  159  A    between atoms: _417  and  _420
REMARK  160  A    between atoms: _420  and  _421
REMARK  161  A    between atoms: _426  and  _428
REMARK  162  A    between atoms: _428  and  _429
REMARK  163  A    between atoms: _428  and  _431
REMARK  164  A    between atoms: _431  and  _432
REMARK  165  A    between atoms: _432  and  _433
REMARK  166  A    between atoms: _436  and  _438
REMARK  167  A    between atoms: _438  and  _439
REMARK  168  A    between atoms: _438  and  _441
REMARK  169  A    between atoms: _444  and  _446
REMARK  170  A    between atoms: _446  and  _447
REMARK  171  A    between atoms: _446  and  _449
REMARK  172  A    between atoms: _449  and  _450
REMARK  173  A    between atoms: _453  and  _455
REMARK  174  A    between atoms: _455  and  _456
REMARK  175  A    between atoms: _455  and  _458
REMARK  176  A    between atoms: _458  and  _459
REMARK  177  A    between atoms: _462  and  _464
REMARK  178  A    between atoms: _464  and  _465
REMARK  179  A    between atoms: _464  and  _467
REMARK  180  A    between atoms: _467  and  _468
REMARK  181  A    between atoms: _471  and  _473
REMARK  182  A    between atoms: _473  and  _474
REMARK  183  A    between atoms: _476  and  _478
REMARK  184  A    between atoms: _478  and  _479
REMARK  185  A    between atoms: _478  and  _481
REMARK  186  A    between atoms: _481  and  _482
REMARK  187  A    between atoms: _482  and  _483
REMARK  188  A    between atoms: _486  and  _488
REMARK  189  A    between atoms: _488  and  _489
REMARK  190  A    between atoms: _488  and  _491
REMARK  191  A    between atoms: _491  and  _492
REMARK  192  A    between atoms: _495  and  _497
REMARK  193  A    between atoms: _497  and  _498
REMARK  194  A    between atoms: _497  and  _500
REMARK  195  A    between atoms: _500  and  _501
REMARK  196  A    between atoms: _507  and  _509
REMARK  197  A    between atoms: _509  and  _510
REMARK  198  A    between atoms: _509  and  _512
REMARK  199  A    between atoms: _512  and  _513
REMARK  200  A    between atoms: _518  and  _520
REMARK  201  A    between atoms: _520  and  _521
REMARK  202  A    between atoms: _520  and  _523
REMARK  203  A    between atoms: _523  and  _524
REMARK  204  A    between atoms: _529  and  _531
REMARK  205  A    between atoms: _531  and  _532
REMARK  206  A    between atoms: _531  and  _534
REMARK  207  A    between atoms: _534  and  _535
REMARK  208  A    between atoms: _538  and  _540
REMARK  209  A    between atoms: _540  and  _541
REMARK  210  A    between atoms: _540  and  _543
REMARK  211  A    between atoms: _543  and  _544
REMARK  212  A    between atoms: _549  and  _551
REMARK  213  A    between atoms: _551  and  _552
REMARK  214  A    between atoms: _551  and  _554
REMARK  215  A    between atoms: _554  and  _555
REMARK  216  A    between atoms: _555  and  _556
REMARK  217  A    between atoms: _556  and  _557
REMARK  218  A    between atoms: _566  and  _568
REMARK  219  A    between atoms: _568  and  _569
REMARK  220  A    between atoms: _571  and  _573
REMARK  221  A    between atoms: _573  and  _574
REMARK  222  A    between atoms: _573  and  _576
REMARK  223  A    between atoms: _576  and  _577
REMARK  224  A    between atoms: _582  and  _584
REMARK  225  A    between atoms: _584  and  _585
REMARK  226  A    between atoms: _587  and  _589
REMARK  227  A    between atoms: _589  and  _590
REMARK  228  A    between atoms: _593  and  _595
REMARK  229  A    between atoms: _595  and  _596
REMARK  230  A    between atoms: _598  and  _600
REMARK  231  A    between atoms: _600  and  _601
REMARK  232  A    between atoms: _600  and  _603
REMARK  233  A    between atoms: _603  and  _604
REMARK  234  A    between atoms: _604  and  _605
REMARK  235  A    between atoms: _605  and  _606
REMARK  236  A    between atoms: _615  and  _617
REMARK  237  A    between atoms: _617  and  _618
REMARK  238  A    between atoms: _617  and  _620
REMARK  239  A    between atoms: _620  and  _621
REMARK  240  A    between atoms: _624  and  _626
REMARK  241  A    between atoms: _626  and  _627
REMARK  242  A    between atoms: _626  and  _629
REMARK  243  A    between atoms: _629  and  _630
REMARK                            x       y       z     vdW  Elec       q    Type
REMARK                         _______ _______ _______ _____ _____    ______ ____
ROOT
ATOM      1  C   ASN A   1      -3.512  47.397  30.976  0.00  0.00    +0.239 C 
ATOM      2  O   ASN A   1      -3.532  47.159  32.201  0.00  0.00    -0.274 OA
ATOM      3  N   VAL A   2      -4.573  47.177  30.199  0.00  0.00    -0.298 N 
ATOM      4  H   VAL A   2      -4.573  47.522  29.218  0.00  0.00    +0.150 HD
ENDROOT
BRANCH   1   5
ATOM      5  CA  ASN A   1      -2.314  48.067  30.319  0.00  0.00    +0.154 C 
BRANCH   5   6
ATOM      6  N   ASN A   1      -1.376  48.646  31.253  0.00  0.00    -0.238 NA
ATOM      7  H   ASN A   1      -1.041  48.078  32.057  0.00  0.00    +0.142 HD
ENDBRANCH   5   6
BRANCH   5   8
ATOM      8  CB  ASN A   1      -1.574  47.061  29.431  0.00  0.00    +0.111 C 
BRANCH   8   9
ATOM      9  CG  ASN A   1      -1.035  45.828  30.112  0.00  0.00    +0.221 C 
ATOM     10  OD1 ASN A   1       0.104  45.802  30.551  0.00  0.00    -0.275 OA
ATOM     11  ND2 ASN A   1      -1.736  44.727  30.230  0.00  0.00    -0.329 N 
ATOM     12 HD21 ASN A   1      -1.316  43.889  30.680  0.00  0.00    +0.145 HD
ATOM     13 HD22 ASN A   1      -2.712  44.692  29.874  0.00  0.00    +0.145 HD
ENDBRANCH   8   9
ENDBRANCH   5   8
ENDBRANCH   1   5
BRANCH   3  14
ATOM     14  CA  VAL A   2      -5.740  46.454  30.714  0.00  0.00    +0.137 C 
BRANCH  14  15
ATOM     15  CB  VAL A   2      -6.891  46.693  29.657  0.00  0.00    +0.026 C 
ATOM     16  CG2 VAL A   2      -8.238  46.712  30.404  0.00  0.00    +0.002 C 
ATOM     17  CG1 VAL A   2      -6.889  45.665  28.532  0.00  0.00    +0.002 C 
ENDBRANCH  14  15
BRANCH  14  18
ATOM     18  C   VAL A   2      -5.355  44.959  30.951  0.00  0.00    +0.227 C 
ATOM     19  O   VAL A   2      -4.468  44.381  30.287  0.00  0.00    -0.286 OA
ENDBRANCH  14  18
ENDBRANCH   3  14
TORSDOF 7
REMARK  Name = ../refined-set-2016/1ppi/1ppi_pocket.pdb
REMARK  243 active torsions:
REMARK  status: ('A' for Active; 'I' for Inactive)
REMARK    1  A    between atoms: _1  and  _3
REMARK    2  A    between atoms: _3  and  _4
REMARK    3  A    between atoms: _3  and  _6
REMARK    4  A    between atoms: _6  and  _7
REMARK    5  A    between atoms: _12  and  _14
REMARK    6  A    between atoms: _14  and  _15
REMARK    7  A    between atoms: _14  and  _17
REMARK    8  A    between atoms: _17  and  _18
REMARK    9  A    between atoms: _24  and  _26
REMARK   10  A    between atoms: _26  and  _27
REMARK   11  A    between atoms: _26  and  _29
REMARK   12  A    between atoms: _29  and  _30
REMARK   13  A    between atoms: _30  and  _31
REMARK   14  A    between atoms: _37  and  _38
REMARK   15  A    between atoms: _43  and  _45
REMARK   16  A    between atoms: _45  and  _46
REMARK   17  A    between atoms: _45  and  _48
REMARK   18  A    between atoms: _48  and  _49
REMARK   19  A    between atoms: _54  and  _56
REMARK   20  A    between atoms: _56  and  _57
REMARK   21  A    between atoms: _56  and  _59
REMARK   22  A    between atoms: _62  and  _64
REMARK   23  A    between atoms: _64  and  _65
REMARK   24  A    between atoms: _64  and  _67
REMARK   25  A    between atoms: _71  and  _72
REMARK   26  A    between atoms: _78  and  _79
REMARK   27  A    between atoms: _84  and  _86
REMARK   28  A    between atoms: _86  and  _87
REMARK   29  A    between atoms: _86  and  _89
REMARK   30  A    between atoms: _89  and  _90
REMARK   31  A    between atoms: _100  and  _102
REMARK   32  A    between atoms: _102  and  _103
REMARK   33  A    between atoms: _102  and  _105
REMARK   34  A    between atoms: _105  and  _106
REMARK   35  A    between atoms: _116  and  _118
REMARK   36  A    between atoms: _118  and  _119
REMARK   37  A    between atoms: _118  and  _121
REMARK   38  A    between atoms: _121  and  _122
REMARK   39  A    between atoms: _122  and  _123
REMARK   40  A    between atoms: _126  and  _128
REMARK   41  A    between atoms: _128  and  _129
REMARK   42  A    between atoms: _128  and  _131
REMARK   43  A    between atoms: _131  and  _132
REMARK   44  A    between atoms: _132  and  _133
REMARK   45  A    between atoms: _133  and  _134
REMARK   46  A    between atoms: _143  and  _145
REMARK   47  A    between atoms: _145  and  _146
REMARK   48  A    between atoms: _145  and  _148
REMARK   49  A    between atoms: _148  and  _149
REMARK   50  A    between atoms: _154  and  _155
REMARK   51  A    between atoms: _157  and  _159
REMARK   52  A    between atoms: _159  and  _160
REMARK   53  A    between atoms: _159  and  _162
REMARK   54  A    between atoms: _162  and  _163
REMARK   55  A    between atoms: _163  and  _164
REMARK   56  A    between atoms: _170  and  _171
REMARK   57  A    between atoms: _176  and  _178
REMARK   58  A    between atoms: _178  and  _179
REMARK   59  A    between atoms: _178  and  _181
REMARK   60  A    between atoms: _181  and  _182
REMARK   61  A    between atoms: _185  and  _187
REMARK   62  A    between atoms: _187  and  _188
REMARK   63  A    between atoms: _191  and  _193
REMARK   64  A    between atoms: _193  and  _194
REMARK   65  A    between atoms: _193  and  _196
REMARK   66  A    between atoms: _199  and  _201
REMARK   67  A    between atoms: _201  and  _202
REMARK   68  A    between atoms: _201  and  _204
REMARK   69  A    between atoms: _204  and  _205
REMARK   70  A    between atoms: _208  and  _210
REMARK   71  A    between atoms: _210  and  _211
REMARK   72  A    between atoms: _210  and  _213
REMARK   73  A    between atoms: _213  and  _214
REMARK   74  A    between atoms: _219  and  _221
REMARK   75  A    between atoms: _221  and  _222
REMARK   76  A    between atoms: _221  and  _224
REMARK   77  A    between atoms: _224  and  _225
REMARK   78  A    between atoms: _230  and  _232
REMARK   79  A    between atoms: _232  and  _233
REMARK   80  A    between atoms: _232  and  _235
REMARK   81  A    between atoms: _235  and  _236
REMARK   82  A    between atoms: _236  and  _237
REMARK   83  A    between atoms: _239  and  _241
REMARK   84  A    between atoms: _241  and  _242
REMARK   85  A    between atoms: _241  and  _244
REMARK   86  A    between atoms: _246  and  _248
REMARK   87  A    between atoms: _248  and  _249
REMARK   88  A    between atoms: _251  and  _253
REMARK   89  A    between atoms: _253  and  _254
REMARK   90  A    between atoms: _253  and  _256
REMARK   91  A    between atoms: _256  and  _257
REMARK   92  A    between atoms: _259  and  _261
REMARK   93  A    between atoms: _261  and  _262
REMARK   94  A    between atoms: _264  and  _266
REMARK   95  A    between atoms: _266  and  _267
REMARK   96  A    between atoms: _270  and  _272
REMARK   97  A    between atoms: _272  and  _273
REMARK   98  A    between atoms: _272  and  _275
REMARK   99  A    between atoms: _275  and  _276
REMARK  100  A    between atoms: _279  and  _281
REMARK  101  A    between atoms: _281  and  _282
REMARK  102  A    between atoms: _281  and  _284
REMARK  103  A    between atoms: _284  and  _285
REMARK  104  A    between atoms: _290  and  _291
REMARK  105  A    between atoms: _293  and  _295
REMARK  106  A    between atoms: _295  and  _296
REMARK  107  A    between atoms: _295  and  _298
REMARK  108  A    between atoms: _301  and  _303
REMARK  109  A    between atoms: _303  and  _304
REMARK  110  A    between atoms: _303  and  _306
REMARK  111  A    between atoms: _306  and  _307
REMARK  112  A    between atoms: _307  and  _308
REMARK  113  A    between atoms: _313  and  _315
REMARK  114  A    between atoms: _315  and  _316
REMARK  115  A    between atoms: _315  and  _318
REMARK  116  A    between atoms: _318  and  _319
REMARK  117  A    between atoms: _322  and  _324
REMARK  118  A    between atoms: _324  and  _325
REMARK  119  A    between atoms: _324  and  _327
REMARK  120  A    between atoms: _330  and  _332
REMARK  121  A    between atoms: _332  and  _333
REMARK  122  A    between atoms: _335  and  _337
REMARK  123  A    between atoms: _337  and  _338
REMARK  124  A    between atoms: _337  and  _340
REMARK  125  A    between atoms: _340  and  _341
REMARK  126  A    between atoms: _344  and  _346
REMARK  127  A    between atoms: _346  and  _347
REMARK  128  A    between atoms: _346  and  _349
REMARK  129  A    between atoms: _349  and  _350
REMARK  130  A    between atoms: _353  and  _355
REMARK  131  A    between atoms: _355  and  _356
REMARK  132  A    between atoms: _355  and  _358
REMARK  133  A    between atoms: _358  and  _359
REMARK  134  A    between atoms: _359  and  _360
REMARK  135  A    between atoms: _360  and  _361
REMARK  136  A    between atoms: _370  and  _372
REMARK  137  A    between atoms: _372  and  _373
REMARK  138  A    between atoms: _372  and  _375
REMARK  139  A    between atoms: _375  and  _376
REMARK  140  A    between atoms: _379  and  _381
REMARK  141  A    between atoms: _381  and  _382
REMARK  142  A    between atoms: _381  and  _384
REMARK  143  A    between atoms: _384  and  _385
REMARK  144  A    between atoms: _388  and  _390
REMARK  145  A    between atoms: _390  and  _391
REMARK  146  A    between atoms: _394  and  _396
REMARK  147  A    between atoms: _396  and  _397
REMARK  148  A    between atoms: _396  and  _399
REMARK  149  A    between atoms: _399  and  _400
REMARK  150  A    between atoms: _402  and  _404
REMARK  151  A    between atoms: _404  and  _405
REMARK  152  A    between atoms: _404  and  _407
REMARK  153  A    between atoms: _407  and  _408
REMARK  154  A    between atoms: _408  and  _409
REMARK  155  A    between atoms: _409  and  _410
REMARK  156  A    between atoms: _410  and  _411
REMARK  157  A    between atoms: _415  and  _417
REMARK  158  A    between atoms: _417  and  _418
REMARK  159  A    between atoms: _417  and  _420
REMARK  160  A    between atoms: _420  and  _421
REMARK  161  A    between atoms: _426  and  _428
REMARK  162  A    between atoms: _428  and  _429
REMARK  163  A    between atoms: _428  and  _431
REMARK  164  A    between atoms: _431  and  _432
REMARK  165  A    between atoms: _432  and  _433
REMARK  166  A    between atoms: _436  and  _438
REMARK  167  A    between atoms: _438  and  _439
REMARK  168  A    between atoms: _438  and  _441
REMARK  169  A    between atoms: _444  and  _446
REMARK  170  A    between atoms: _446  and  _447
REMARK  171  A    between atoms: _446  and  _449
REMARK  172  A    between atoms: _449  and  _450
REMARK  173  A    between atoms: _453  and  _455
REMARK  174  A    between atoms: _455  and  _456
REMARK  175  A    between atoms: _455  and  _458
REMARK  176  A    between atoms: _458  and  _459
REMARK  177  A    between atoms: _462  and  _464
REMARK  178  A    between atoms: _464  and  _465
REMARK  179  A    between atoms: _464  and  _467
REMARK  180  A    between atoms: _467  and  _468
REMARK  181  A    between atoms: _471  and  _473
REMARK  182  A    between atoms: _473  and  _474
REMARK  183  A    between atoms: _476  and  _478
REMARK  184  A    between atoms: _478  and  _479
REMARK  185  A    between atoms: _478  and  _481
REMARK  186  A    between atoms: _481  and  _482
REMARK  187  A    between atoms: _482  and  _483
REMARK  188  A    between atoms: _486  and  _488
REMARK  189  A    between atoms: _488  and  _489
REMARK  190  A    between atoms: _488  and  _491
REMARK  191  A    between atoms: _491  and  _492
REMARK  192  A    between atoms: _495  and  _497
REMARK  193  A    between atoms: _497  and  _498
REMARK  194  A    between atoms: _497  and  _500
REMARK  195  A    between atoms: _500  and  _501
REMARK  196  A    between atoms: _507  and  _509
REMARK  197  A    between atoms: _509  and  _510
REMARK  198  A    between atoms: _509  and  _512
REMARK  199  A    between atoms: _512  and  _513
REMARK  200  A    between atoms: _518  and  _520
REMARK  201  A    between atoms: _520  and  _521
REMARK  202  A    between atoms: _520  and  _523
REMARK  203  A    between atoms: _523  and  _524
REMARK  204  A    between atoms: _529  and  _531
REMARK  205  A    between atoms: _531  and  _532
REMARK  206  A    between atoms: _531  and  _534
REMARK  207  A    between atoms: _534  and  _535
REMARK  208  A    between atoms: _538  and  _540
REMARK  209  A    between atoms: _540  and  _541
REMARK  210  A    between atoms: _540  and  _543
REMARK  211  A    between atoms: _543  and  _544
REMARK  212  A    between atoms: _549  and  _551
REMARK  213  A    between atoms: _551  and  _552
REMARK  214  A    between atoms: _551  and  _554
REMARK  215  A    between atoms: _554  and  _555
REMARK  216  A    between atoms: _555  and  _556
REMARK  217  A    between atoms: _556  and  _557
REMARK  218  A    between atoms: _566  and  _568
REMARK  219  A    between atoms: _568  and  _569
REMARK  220  A    between atoms: _571  and  _573
REMARK  221  A    between atoms: _573  and  _574
REMARK  222  A    between atoms: _573  and  _576
REMARK  223  A    between atoms: _576  and  _577
REMARK  224  A    between atoms: _582  and  _584
REMARK  225  A    between atoms: _584  and  _585
REMARK  226  A    between atoms: _587  and  _589
REMARK  227  A    between atoms: _589  and  _590
REMARK  228  A    between atoms: _593  and  _595
REMARK  229  A    between atoms: _595  and  _596
REMARK  230  A    between atoms: _598  and  _600
REMARK  231  A    between atoms: _600  and  _601
REMARK  232  A    between atoms: _600  and  _603
REMARK  233  A    between atoms: _603  and  _604
REMARK  234  A    between atoms: _604  and  _605
REMARK  235  A    between atoms: _605  and  _606
REMARK  236  A    between atoms: _615  and  _617
REMARK  237  A    between atoms: _617  and  _618
REMARK  238  A    between atoms: _617  and  _620
REMARK  239  A    between atoms: _620  and  _621
REMARK  240  A    between atoms: _624  and  _626
REMARK  241  A    between atoms: _626  and  _627
REMARK  242  A    between atoms: _626  and  _629
REMARK  243  A    between atoms: _629  and  _630
REMARK                            x       y       z     vdW  Elec       q    Type
REMARK                         _______ _______ _______ _____ _____    ______ ____
ROOT
ATOM      1  CA  VAL A   1      -7.308  40.457  29.728  0.00  0.00    +0.133 C 
ENDROOT
BRANCH   1   2
ATOM      2  CB  VAL A   1      -6.770  40.380  28.272  0.00  0.00    +0.023 C 
ATOM      3  CG2 VAL A   1      -6.761  41.764  27.645  0.00  0.00    +0.002 C 
ATOM      4  CG1 VAL A   1      -7.662  39.483  27.427  0.00  0.00    +0.002 C 
ENDBRANCH   1   2
BRANCH   1   5
ATOM      5  N   VAL A   1      -6.434  41.276  30.554  0.00  0.00    -0.239 NA
ATOM      6  H   VAL A   1      -5.410  41.160  30.418  0.00  0.00    +0.142 HD
ENDBRANCH   1   5
BRANCH   1   7
ATOM      7  C   VAL A   1      -7.360  39.051  30.351  0.00  0.00    +0.224 C 
ATOM      8  O   VAL A   1      -6.329  38.394  30.504  0.00  0.00    -0.287 OA
ENDBRANCH   1   7
TORSDOF 3
REMARK  Name = ../refined-set-2016/1ppi/1ppi_pocket.pdb
REMARK  243 active torsions:
REMARK  status: ('A' for Active; 'I' for Inactive)
REMARK    1  A    between atoms: _1  and  _3
REMARK    2  A    between atoms: _3  and  _4
REMARK    3  A    between atoms: _3  and  _6
REMARK    4  A    between atoms: _6  and  _7
REMARK    5  A    between atoms: _12  and  _14
REMARK    6  A    between atoms: _14  and  _15
REMARK    7  A    between atoms: _14  and  _17
REMARK    8  A    between atoms: _17  and  _18
REMARK    9  A    between atoms: _24  and  _26
REMARK   10  A    between atoms: _26  and  _27
REMARK   11  A    between atoms: _26  and  _29
REMARK   12  A    between atoms: _29  and  _30
REMARK   13  A    between atoms: _30  and  _31
REMARK   14  A    between atoms: _37  and  _38
REMARK   15  A    between atoms: _43  and  _45
REMARK   16  A    between atoms: _45  and  _46
REMARK   17  A    between atoms: _45  and  _48
REMARK   18  A    between atoms: _48  and  _49
REMARK   19  A    between atoms: _54  and  _56
REMARK   20  A    between atoms: _56  and  _57
REMARK   21  A    between atoms: _56  and  _59
REMARK   22  A    between atoms: _62  and  _64
REMARK   23  A    between atoms: _64  and  _65
REMARK   24  A    between atoms: _64  and  _67
REMARK   25  A    between atoms: _71  and  _72
REMARK   26  A    between atoms: _78  and  _79
REMARK   27  A    between atoms: _84  and  _86
REMARK   28  A    between atoms: _86  and  _87
REMARK   29  A    between atoms: _86  and  _89
REMARK   30  A    between atoms: _89  and  _90
REMARK   31  A    between atoms: _100  and  _102
REMARK   32  A    between atoms: _102  and  _103
REMARK   33  A    between atoms: _102  and  _105
REMARK   34  A    between atoms: _105  and  _106
REMARK   35  A    between atoms: _116  and  _118
REMARK   36  A    between atoms: _118  and  _119
REMARK   37  A    between atoms: _118  and  _121
REMARK   38  A    between atoms: _121  and  _122
REMARK   39  A    between atoms: _122  and  _123
REMARK   40  A    between atoms: _126  and  _128
REMARK   41  A    between atoms: _128  and  _129
REMARK   42  A    between atoms: _128  and  _131
REMARK   43  A    between atoms: _131  and  _132
REMARK   44  A    between atoms: _132  and  _133
REMARK   45  A    between atoms: _133  and  _134
REMARK   46  A    between atoms: _143  and  _145
REMARK   47  A    between atoms: _145  and  _146
REMARK   48  A    between atoms: _145  and  _148
REMARK   49  A    between atoms: _148  and  _149
REMARK   50  A    between atoms: _154  and  _155
REMARK   51  A    between atoms: _157  and  _159
REMARK   52  A    between atoms: _159  and  _160
REMARK   53  A    between atoms: _159  and  _162
REMARK   54  A    between atoms: _162  and  _163
REMARK   55  A    between atoms: _163  and  _164
REMARK   56  A    between atoms: _170  and  _171
REMARK   57  A    between atoms: _176  and  _178
REMARK   58  A    between atoms: _178  and  _179
REMARK   59  A    between atoms: _178  and  _181
REMARK   60  A    between atoms: _181  and  _182
REMARK   61  A    between atoms: _185  and  _187
REMARK   62  A    between atoms: _187  and  _188
REMARK   63  A    between atoms: _191  and  _193
REMARK   64  A    between atoms: _193  and  _194
REMARK   65  A    between atoms: _193  and  _196
REMARK   66  A    between atoms: _199  and  _201
REMARK   67  A    between atoms: _201  and  _202
REMARK   68  A    between atoms: _201  and  _204
REMARK   69  A    between atoms: _204  and  _205
REMARK   70  A    between atoms: _208  and  _210
REMARK   71  A    between atoms: _210  and  _211
REMARK   72  A    between atoms: _210  and  _213
REMARK   73  A    between atoms: _213  and  _214
REMARK   74  A    between atoms: _219  and  _221
REMARK   75  A    between atoms: _221  and  _222
REMARK   76  A    between atoms: _221  and  _224
REMARK   77  A    between atoms: _224  and  _225
REMARK   78  A    between atoms: _230  and  _232
REMARK   79  A    between atoms: _232  and  _233
REMARK   80  A    between atoms: _232  and  _235
REMARK   81  A    between atoms: _235  and  _236
REMARK   82  A    between atoms: _236  and  _237
REMARK   83  A    between atoms: _239  and  _241
REMARK   84  A    between atoms: _241  and  _242
REMARK   85  A    between atoms: _241  and  _244
REMARK   86  A    between atoms: _246  and  _248
REMARK   87  A    between atoms: _248  and  _249
REMARK   88  A    between atoms: _251  and  _253
REMARK   89  A    between atoms: _253  and  _254
REMARK   90  A    between atoms: _253  and  _256
REMARK   91  A    between atoms: _256  and  _257
REMARK   92  A    between atoms: _259  and  _261
REMARK   93  A    between atoms: _261  and  _262
REMARK   94  A    between atoms: _264  and  _266
REMARK   95  A    between atoms: _266  and  _267
REMARK   96  A    between atoms: _270  and  _272
REMARK   97  A    between atoms: _272  and  _273
REMARK   98  A    between atoms: _272  and  _275
REMARK   99  A    between atoms: _275  and  _276
REMARK  100  A    between atoms: _279  and  _281
REMARK  101  A    between atoms: _281  and  _282
REMARK  102  A    between atoms: _281  and  _284
REMARK  103  A    between atoms: _284  and  _285
REMARK  104  A    between atoms: _290  and  _291
REMARK  105  A    between atoms: _293  and  _295
REMARK  106  A    between atoms: _295  and  _296
REMARK  107  A    between atoms: _295  and  _298
REMARK  108  A    between atoms: _301  and  _303
REMARK  109  A    between atoms: _303  and  _304
REMARK  110  A    between atoms: _303  and  _306
REMARK  111  A    between atoms: _306  and  _307
REMARK  112  A    between atoms: _307  and  _308
REMARK  113  A    between atoms: _313  and  _315
REMARK  114  A    between atoms: _315  and  _316
REMARK  115  A    between atoms: _315  and  _318
REMARK  116  A    between atoms: _318  and  _319
REMARK  117  A    between atoms: _322  and  _324
REMARK  118  A    between atoms: _324  and  _325
REMARK  119  A    between atoms: _324  and  _327
REMARK  120  A    between atoms: _330  and  _332
REMARK  121  A    between atoms: _332  and  _333
REMARK  122  A    between atoms: _335  and  _337
REMARK  123  A    between atoms: _337  and  _338
REMARK  124  A    between atoms: _337  and  _340
REMARK  125  A    between atoms: _340  and  _341
REMARK  126  A    between atoms: _344  and  _346
REMARK  127  A    between atoms: _346  and  _347
REMARK  128  A    between atoms: _346  and  _349
REMARK  129  A    between atoms: _349  and  _350
REMARK  130  A    between atoms: _353  and  _355
REMARK  131  A    between atoms: _355  and  _356
REMARK  132  A    between atoms: _355  and  _358
REMARK  133  A    between atoms: _358  and  _359
REMARK  134  A    between atoms: _359  and  _360
REMARK  135  A    between atoms: _360  and  _361
REMARK  136  A    between atoms: _370  and  _372
REMARK  137  A    between atoms: _372  and  _373
REMARK  138  A    between atoms: _372  and  _375
REMARK  139  A    between atoms: _375  and  _376
REMARK  140  A    between atoms: _379  and  _381
REMARK  141  A    between atoms: _381  and  _382
REMARK  142  A    between atoms: _381  and  _384
REMARK  143  A    between atoms: _384  and  _385
REMARK  144  A    between atoms: _388  and  _390
REMARK  145  A    between atoms: _390  and  _391
REMARK  146  A    between atoms: _394  and  _396
REMARK  147  A    between atoms: _396  and  _397
REMARK  148  A    between atoms: _396  and  _399
REMARK  149  A    between atoms: _399  and  _400
REMARK  150  A    between atoms: _402  and  _404
REMARK  151  A    between atoms: _404  and  _405
REMARK  152  A    between atoms: _404  and  _407
REMARK  153  A    between atoms: _407  and  _408
REMARK  154  A    between atoms: _408  and  _409
REMARK  155  A    between atoms: _409  and  _410
REMARK  156  A    between atoms: _410  and  _411
REMARK  157  A    between atoms: _415  and  _417
REMARK  158  A    between atoms: _417  and  _418
REMARK  159  A    between atoms: _417  and  _420
REMARK  160  A    between atoms: _420  and  _421
REMARK  161  A    between atoms: _426  and  _428
REMARK  162  A    between atoms: _428  and  _429
REMARK  163  A    between atoms: _428  and  _431
REMARK  164  A    between atoms: _431  and  _432
REMARK  165  A    between atoms: _432  and  _433
REMARK  166  A    between atoms: _436  and  _438
REMARK  167  A    between atoms: _438  and  _439
REMARK  168  A    between atoms: _438  and  _441
REMARK  169  A    between atoms: _444  and  _446
REMARK  170  A    between atoms: _446  and  _447
REMARK  171  A    between atoms: _446  and  _449
REMARK  172  A    between atoms: _449  and  _450
REMARK  173  A    between atoms: _453  and  _455
REMARK  174  A    between atoms: _455  and  _456
REMARK  175  A    between atoms: _455  and  _458
REMARK  176  A    between atoms: _458  and  _459
REMARK  177  A    between atoms: _462  and  _464
REMARK  178  A    between atoms: _464  and  _465
REMARK  179  A    between atoms: _464  and  _467
REMARK  180  A    between atoms: _467  and  _468
REMARK  181  A    between atoms: _471  and  _473
REMARK  182  A    between atoms: _473  and  _474
REMARK  183  A    between atoms: _476  and  _478
REMARK  184  A    between atoms: _478  and  _479
REMARK  185  A    between atoms: _478  and  _481
REMARK  186  A    between atoms: _481  and  _482
REMARK  187  A    between atoms: _482  and  _483
REMARK  188  A    between atoms: _486  and  _488
REMARK  189  A    between atoms: _488  and  _489
REMARK  190  A    between atoms: _488  and  _491
REMARK  191  A    between atoms: _491  and  _492
REMARK  192  A    between atoms: _495  and  _497
REMARK  193  A    between atoms: _497  and  _498
REMARK  194  A    between atoms: _497  and  _500
REMARK  195  A    between atoms: _500  and  _501
REMARK  196  A    between atoms: _507  and  _509
REMARK  197  A    between atoms: _509  and  _510
REMARK  198  A    between atoms: _509  and  _512
REMARK  199  A    between atoms: _512  and  _513
REMARK  200  A    between atoms: _518  and  _520
REMARK  201  A    between atoms: _520  and  _521
REMARK  202  A    between atoms: _520  and  _523
REMARK  203  A    between atoms: _523  and  _524
REMARK  204  A    between atoms: _529  and  _531
REMARK  205  A    between atoms: _531  and  _532
REMARK  206  A    between atoms: _531  and  _534
REMARK  207  A    between atoms: _534  and  _535
REMARK  208  A    between atoms: _538  and  _540
REMARK  209  A    between atoms: _540  and  _541
REMARK  210  A    between atoms: _540  and  _543
REMARK  211  A    between atoms: _543  and  _544
REMARK  212  A    between atoms: _549  and  _551
REMARK  213  A    between atoms: _551  and  _552
REMARK  214  A    between atoms: _551  and  _554
REMARK  215  A    between atoms: _554  and  _555
REMARK  216  A    between atoms: _555  and  _556
REMARK  217  A    between atoms: _556  and  _557
REMARK  218  A    between atoms: _566  and  _568
REMARK  219  A    between atoms: _568  and  _569
REMARK  220  A    between atoms: _571  and  _573
REMARK  221  A    between atoms: _573  and  _574
REMARK  222  A    between atoms: _573  and  _576
REMARK  223  A    between atoms: _576  and  _577
REMARK  224  A    between atoms: _582  and  _584
REMARK  225  A    between atoms: _584  and  _585
REMARK  226  A    between atoms: _587  and  _589
REMARK  227  A    between atoms: _589  and  _590
REMARK  228  A    between atoms: _593  and  _595
REMARK  229  A    between atoms: _595  and  _596
REMARK  230  A    between atoms: _598  and  _600
REMARK  231  A    between atoms: _600  and  _601
REMARK  232  A    between atoms: _600  and  _603
REMARK  233  A    between atoms: _603  and  _604
REMARK  234  A    between atoms: _604  and  _605
REMARK  235  A    between atoms: _605  and  _606
REMARK  236  A    between atoms: _615  and  _617
REMARK  237  A    between atoms: _617  and  _618
REMARK  238  A    between atoms: _617  and  _620
REMARK  239  A    between atoms: _620  and  _621
REMARK  240  A    between atoms: _624  and  _626
REMARK  241  A    between atoms: _626  and  _627
REMARK  242  A    between atoms: _626  and  _629
REMARK  243  A    between atoms: _629  and  _630
REMARK                            x       y       z     vdW  Elec       q    Type
REMARK                         _______ _______ _______ _____ _____    ______ ____
ROOT
ATOM      1  N   PRO A   1      -8.713  35.421  26.489  0.00  0.00    -0.212 NA
ATOM      2  CA  PRO A   1      -8.013  34.307  27.094  0.00  0.00    +0.137 C 
ATOM      3  CB  PRO A   1      -7.229  33.772  25.961  0.00  0.00    +0.027 C 
ATOM      4  CG  PRO A   1      -6.948  34.953  25.083  0.00  0.00    +0.021 C 
ATOM      5  CD  PRO A   1      -8.233  35.725  25.155  0.00  0.00    +0.089 C 
ENDROOT
BRANCH   2   6
ATOM      6  C   PRO A   1      -7.202  34.772  28.275  0.00  0.00    +0.224 C 
ATOM      7  O   PRO A   1      -7.071  35.983  28.511  0.00  0.00    -0.287 OA
ENDBRANCH   2   6
TORSDOF 1
REMARK  Name = ../refined-set-2016/1ppi/1ppi_pocket.pdb
REMARK  243 active torsions:
REMARK  status: ('A' for Active; 'I' for Inactive)
REMARK    1  A    between atoms: _1  and  _3
REMARK    2  A    between atoms: _3  and  _4
REMARK    3  A    between atoms: _3  and  _6
REMARK    4  A    between atoms: _6  and  _7
REMARK    5  A    between atoms: _12  and  _14
REMARK    6  A    between atoms: _14  and  _15
REMARK    7  A    between atoms: _14  and  _17
REMARK    8  A    between atoms: _17  and  _18
REMARK    9  A    between atoms: _24  and  _26
REMARK   10  A    between atoms: _26  and  _27
REMARK   11  A    between atoms: _26  and  _29
REMARK   12  A    between atoms: _29  and  _30
REMARK   13  A    between atoms: _30  and  _31
REMARK   14  A    between atoms: _37  and  _38
REMARK   15  A    between atoms: _43  and  _45
REMARK   16  A    between atoms: _45  and  _46
REMARK   17  A    between atoms: _45  and  _48
REMARK   18  A    between atoms: _48  and  _49
REMARK   19  A    between atoms: _54  and  _56
REMARK   20  A    between atoms: _56  and  _57
REMARK   21  A    between atoms: _56  and  _59
REMARK   22  A    between atoms: _62  and  _64
REMARK   23  A    between atoms: _64  and  _65
REMARK   24  A    between atoms: _64  and  _67
REMARK   25  A    between atoms: _71  and  _72
REMARK   26  A    between atoms: _78  and  _79
REMARK   27  A    between atoms: _84  and  _86
REMARK   28  A    between atoms: _86  and  _87
REMARK   29  A    between atoms: _86  and  _89
REMARK   30  A    between atoms: _89  and  _90
REMARK   31  A    between atoms: _100  and  _102
REMARK   32  A    between atoms: _102  and  _103
REMARK   33  A    between atoms: _102  and  _105
REMARK   34  A    between atoms: _105  and  _106
REMARK   35  A    between atoms: _116  and  _118
REMARK   36  A    between atoms: _118  and  _119
REMARK   37  A    between atoms: _118  and  _121
REMARK   38  A    between atoms: _121  and  _122
REMARK   39  A    between atoms: _122  and  _123
REMARK   40  A    between atoms: _126  and  _128
REMARK   41  A    between atoms: _128  and  _129
REMARK   42  A    between atoms: _128  and  _131
REMARK   43  A    between atoms: _131  and  _132
REMARK   44  A    between atoms: _132  and  _133
REMARK   45  A    between atoms: _133  and  _134
REMARK   46  A    between atoms: _143  and  _145
REMARK   47  A    between atoms: _145  and  _146
REMARK   48  A    between atoms: _145  and  _148
REMARK   49  A    between atoms: _148  and  _149
REMARK   50  A    between atoms: _154  and  _155
REMARK   51  A    between atoms: _157  and  _159
REMARK   52  A    between atoms: _159  and  _160
REMARK   53  A    between atoms: _159  and  _162
REMARK   54  A    between atoms: _162  and  _163
REMARK   55  A    between atoms: _163  and  _164
REMARK   56  A    between atoms: _170  and  _171
REMARK   57  A    between atoms: _176  and  _178
REMARK   58  A    between atoms: _178  and  _179
REMARK   59  A    between atoms: _178  and  _181
REMARK   60  A    between atoms: _181  and  _182
REMARK   61  A    between atoms: _185  and  _187
REMARK   62  A    between atoms: _187  and  _188
REMARK   63  A    between atoms: _191  and  _193
REMARK   64  A    between atoms: _193  and  _194
REMARK   65  A    between atoms: _193  and  _196
REMARK   66  A    between atoms: _199  and  _201
REMARK   67  A    between atoms: _201  and  _202
REMARK   68  A    between atoms: _201  and  _204
REMARK   69  A    between atoms: _204  and  _205
REMARK   70  A    between atoms: _208  and  _210
REMARK   71  A    between atoms: _210  and  _211
REMARK   72  A    between atoms: _210  and  _213
REMARK   73  A    between atoms: _213  and  _214
REMARK   74  A    between atoms: _219  and  _221
REMARK   75  A    between atoms: _221  and  _222
REMARK   76  A    between atoms: _221  and  _224
REMARK   77  A    between atoms: _224  and  _225
REMARK   78  A    between atoms: _230  and  _232
REMARK   79  A    between atoms: _232  and  _233
REMARK   80  A    between atoms: _232  and  _235
REMARK   81  A    between atoms: _235  and  _236
REMARK   82  A    between atoms: _236  and  _237
REMARK   83  A    between atoms: _239  and  _241
REMARK   84  A    between atoms: _241  and  _242
REMARK   85  A    between atoms: _241  and  _244
REMARK   86  A    between atoms: _246  and  _248
REMARK   87  A    between atoms: _248  and  _249
REMARK   88  A    between atoms: _251  and  _253
REMARK   89  A    between atoms: _253  and  _254
REMARK   90  A    between atoms: _253  and  _256
REMARK   91  A    between atoms: _256  and  _257
REMARK   92  A    between atoms: _259  and  _261
REMARK   93  A    between atoms: _261  and  _262
REMARK   94  A    between atoms: _264  and  _266
REMARK   95  A    between atoms: _266  and  _267
REMARK   96  A    between atoms: _270  and  _272
REMARK   97  A    between atoms: _272  and  _273
REMARK   98  A    between atoms: _272  and  _275
REMARK   99  A    between atoms: _275  and  _276
REMARK  100  A    between atoms: _279  and  _281
REMARK  101  A    between atoms: _281  and  _282
REMARK  102  A    between atoms: _281  and  _284
REMARK  103  A    between atoms: _284  and  _285
REMARK  104  A    between atoms: _290  and  _291
REMARK  105  A    between atoms: _293  and  _295
REMARK  106  A    between atoms: _295  and  _296
REMARK  107  A    between atoms: _295  and  _298
REMARK  108  A    between atoms: _301  and  _303
REMARK  109  A    between atoms: _303  and  _304
REMARK  110  A    between atoms: _303  and  _306
REMARK  111  A    between atoms: _306  and  _307
REMARK  112  A    between atoms: _307  and  _308
REMARK  113  A    between atoms: _313  and  _315
REMARK  114  A    between atoms: _315  and  _316
REMARK  115  A    between atoms: _315  and  _318
REMARK  116  A    between atoms: _318  and  _319
REMARK  117  A    between atoms: _322  and  _324
REMARK  118  A    between atoms: _324  and  _325
REMARK  119  A    between atoms: _324  and  _327
REMARK  120  A    between atoms: _330  and  _332
REMARK  121  A    between atoms: _332  and  _333
REMARK  122  A    between atoms: _335  and  _337
REMARK  123  A    between atoms: _337  and  _338
REMARK  124  A    between atoms: _337  and  _340
REMARK  125  A    between atoms: _340  and  _341
REMARK  126  A    between atoms: _344  and  _346
REMARK  127  A    between atoms: _346  and  _347
REMARK  128  A    between atoms: _346  and  _349
REMARK  129  A    between atoms: _349  and  _350
REMARK  130  A    between atoms: _353  and  _355
REMARK  131  A    between atoms: _355  and  _356
REMARK  132  A    between atoms: _355  and  _358
REMARK  133  A    between atoms: _358  and  _359
REMARK  134  A    between atoms: _359  and  _360
REMARK  135  A    between atoms: _360  and  _361
REMARK  136  A    between atoms: _370  and  _372
REMARK  137  A    between atoms: _372  and  _373
REMARK  138  A    between atoms: _372  and  _375
REMARK  139  A    between atoms: _375  and  _376
REMARK  140  A    between atoms: _379  and  _381
REMARK  141  A    between atoms: _381  and  _382
REMARK  142  A    between atoms: _381  and  _384
REMARK  143  A    between atoms: _384  and  _385
REMARK  144  A    between atoms: _388  and  _390
REMARK  145  A    between atoms: _390  and  _391
REMARK  146  A    between atoms: _394  and  _396
REMARK  147  A    between atoms: _396  and  _397
REMARK  148  A    between atoms: _396  and  _399
REMARK  149  A    between atoms: _399  and  _400
REMARK  150  A    between atoms: _402  and  _404
REMARK  151  A    between atoms: _404  and  _405
REMARK  152  A    between atoms: _404  and  _407
REMARK  153  A    between atoms: _407  and  _408
REMARK  154  A    between atoms: _408  and  _409
REMARK  155  A    between atoms: _409  and  _410
REMARK  156  A    between atoms: _410  and  _411
REMARK  157  A    between atoms: _415  and  _417
REMARK  158  A    between atoms: _417  and  _418
REMARK  159  A    between atoms: _417  and  _420
REMARK  160  A    between atoms: _420  and  _421
REMARK  161  A    between atoms: _426  and  _428
REMARK  162  A    between atoms: _428  and  _429
REMARK  163  A    between atoms: _428  and  _431
REMARK  164  A    between atoms: _431  and  _432
REMARK  165  A    between atoms: _432  and  _433
REMARK  166  A    between atoms: _436  and  _438
REMARK  167  A    between atoms: _438  and  _439
REMARK  168  A    between atoms: _438  and  _441
REMARK  169  A    between atoms: _444  and  _446
REMARK  170  A    between atoms: _446  and  _447
REMARK  171  A    between atoms: _446  and  _449
REMARK  172  A    between atoms: _449  and  _450
REMARK  173  A    between atoms: _453  and  _455
REMARK  174  A    between atoms: _455  and  _456
REMARK  175  A    between atoms: _455  and  _458
REMARK  176  A    between atoms: _458  and  _459
REMARK  177  A    between atoms: _462  and  _464
REMARK  178  A    between atoms: _464  and  _465
REMARK  179  A    between atoms: _464  and  _467
REMARK  180  A    between atoms: _467  and  _468
REMARK  181  A    between atoms: _471  and  _473
REMARK  182  A    between atoms: _473  and  _474
REMARK  183  A    between atoms: _476  and  _478
REMARK  184  A    between atoms: _478  and  _479
REMARK  185  A    between atoms: _478  and  _481
REMARK  186  A    between atoms: _481  and  _482
REMARK  187  A    between atoms: _482  and  _483
REMARK  188  A    between atoms: _486  and  _488
REMARK  189  A    between atoms: _488  and  _489
REMARK  190  A    between atoms: _488  and  _491
REMARK  191  A    between atoms: _491  and  _492
REMARK  192  A    between atoms: _495  and  _497
REMARK  193  A    between atoms: _497  and  _498
REMARK  194  A    between atoms: _497  and  _500
REMARK  195  A    between atoms: _500  and  _501
REMARK  196  A    between atoms: _507  and  _509
REMARK  197  A    between atoms: _509  and  _510
REMARK  198  A    between atoms: _509  and  _512
REMARK  199  A    between atoms: _512  and  _513
REMARK  200  A    between atoms: _518  and  _520
REMARK  201  A    between atoms: _520  and  _521
REMARK  202  A    between atoms: _520  and  _523
REMARK  203  A    between atoms: _523  and  _524
REMARK  204  A    between atoms: _529  and  _531
REMARK  205  A    between atoms: _531  and  _532
REMARK  206  A    between atoms: _531  and  _534
REMARK  207  A    between atoms: _534  and  _535
REMARK  208  A    between atoms: _538  and  _540
REMARK  209  A    between atoms: _540  and  _541
REMARK  210  A    between atoms: _540  and  _543
REMARK  211  A    between atoms: _543  and  _544
REMARK  212  A    between atoms: _549  and  _551
REMARK  213  A    between atoms: _551  and  _552
REMARK  214  A    between atoms: _551  and  _554
REMARK  215  A    between atoms: _554  and  _555
REMARK  216  A    between atoms: _555  and  _556
REMARK  217  A    between atoms: _556  and  _557
REMARK  218  A    between atoms: _566  and  _568
REMARK  219  A    between atoms: _568  and  _569
REMARK  220  A    between atoms: _571  and  _573
REMARK  221  A    between atoms: _573  and  _574
REMARK  222  A    between atoms: _573  and  _576
REMARK  223  A    between atoms: _576  and  _577
REMARK  224  A    between atoms: _582  and  _584
REMARK  225  A    between atoms: _584  and  _585
REMARK  226  A    between atoms: _587  and  _589
REMARK  227  A    between atoms: _589  and  _590
REMARK  228  A    between atoms: _593  and  _595
REMARK  229  A    between atoms: _595  and  _596
REMARK  230  A    between atoms: _598  and  _600
REMARK  231  A    between atoms: _600  and  _601
REMARK  232  A    between atoms: _600  and  _603
REMARK  233  A    between atoms: _603  and  _604
REMARK  234  A    between atoms: _604  and  _605
REMARK  235  A    between atoms: _605  and  _606
REMARK  236  A    between atoms: _615  and  _617
REMARK  237  A    between atoms: _617  and  _618
REMARK  238  A    between atoms: _617  and  _620
REMARK  239  A    between atoms: _620  and  _621
REMARK  240  A    between atoms: _624  and  _626
REMARK  241  A    between atoms: _626  and  _627
REMARK  242  A    between atoms: _626  and  _629
REMARK  243  A    between atoms: _629  and  _630
REMARK                            x       y       z     vdW  Elec       q    Type
REMARK                         _______ _______ _______ _____ _____    ______ ____
ROOT
ATOM      1  C   GLU A   4      -2.005  43.975  26.646  0.00  0.00    +0.241 C 
ATOM      2  O   GLU A   4      -2.455  45.089  26.967  0.00  0.00    -0.273 OA
ATOM      3  N   ARG A   5      -0.684  43.808  26.458  0.00  0.00    -0.297 N 
ATOM      4  H   ARG A   5      -0.319  42.872  26.188  0.00  0.00    +0.150 HD
ENDROOT
BRANCH   1   5
ATOM      5  CA  GLU A   4      -2.924  42.746  26.428  0.00  0.00    +0.149 C 
BRANCH   5   7
ATOM      6  C   TRP A   3      -1.994  42.084  24.296  0.00  0.00    +0.241 C 
ATOM      7  N   GLU A   4      -2.271  41.759  25.562  0.00  0.00    -0.297 N 
ATOM      8  H   GLU A   4      -2.026  40.817  25.929  0.00  0.00    +0.150 HD
ATOM      9  O   TRP A   3      -2.329  43.185  23.841  0.00  0.00    -0.273 OA
BRANCH   6  10
ATOM     10  CA  TRP A   3      -1.179  41.196  23.401  0.00  0.00    +0.153 C 
BRANCH  10  13
ATOM     11  C   TRP A   2       0.392  39.953  24.789  0.00  0.00    +0.241 C 
ATOM     12  O   TRP A   2       0.907  41.008  25.170  0.00  0.00    -0.273 OA
ATOM     13  N   TRP A   3      -0.682  39.954  23.983  0.00  0.00    -0.297 N 
ATOM     14  H   TRP A   3      -1.166  39.058  23.771  0.00  0.00    +0.150 HD
BRANCH  11  15
ATOM     15  CA  TRP A   2       0.957  38.618  25.252  0.00  0.00    +0.153 C 
BRANCH  15  18
ATOM     16  C   PRO A   1      -1.108  37.979  26.303  0.00  0.00    +0.239 C 
ATOM     17  O   PRO A   1      -1.040  38.986  27.026  0.00  0.00    -0.274 OA
ATOM     18  N   TRP A   2      -0.154  37.700  25.428  0.00  0.00    -0.297 N 
ATOM     19  H   TRP A   2      -0.200  36.825  24.868  0.00  0.00    +0.150 HD
BRANCH  16  24
ATOM     20  N   PRO A   1      -2.974  37.111  27.636  0.00  0.00    -0.210 NA
ATOM     21  CD  PRO A   1      -4.283  37.742  27.498  0.00  0.00    +0.089 C 
ATOM     22  CG  PRO A   1      -4.241  38.272  26.089  0.00  0.00    +0.021 C 
ATOM     23  CB  PRO A   1      -3.359  37.302  25.366  0.00  0.00    +0.028 C 
ATOM     24  CA  PRO A   1      -2.287  37.016  26.366  0.00  0.00    +0.149 C 
ENDBRANCH  16  24
ENDBRANCH  15  18
BRANCH  15  25
ATOM     25  CB  TRP A   2       1.970  38.078  24.196  0.00  0.00    +0.057 C 
BRANCH  25  26
ATOM     26  CG  TRP A   2       1.411  37.860  22.789  0.00  0.00    -0.002 A 
ATOM     27  CD1 TRP A   2       0.863  36.719  22.474  0.00  0.00    +0.068 A 
ATOM     28  NE1 TRP A   2       0.433  36.868  21.248  0.00  0.00    -0.352 N 
ATOM     29  CE2 TRP A   2       0.705  38.100  20.781  0.00  0.00    +0.056 A 
ATOM     30  CZ2 TRP A   2       0.428  38.687  19.564  0.00  0.00    +0.017 A 
ATOM     31  CH2 TRP A   2       0.822  39.990  19.326  0.00  0.00    +0.001 A 
ATOM     32  CZ3 TRP A   2       1.494  40.705  20.308  0.00  0.00    +0.000 A 
ATOM     33  CE3 TRP A   2       1.776  40.138  21.527  0.00  0.00    +0.001 A 
ATOM     34  HE1 TRP A   2      -0.056  36.129  20.704  0.00  0.00    +0.166 HD
ATOM     35  CD2 TRP A   2       1.364  38.799  21.763  0.00  0.00    +0.013 A 
ENDBRANCH  25  26
ENDBRANCH  15  25
ENDBRANCH  11  15
ENDBRANCH  10  13
BRANCH  10  36
ATOM     36  CB  TRP A   3      -1.983  40.950  22.096  0.00  0.00    +0.057 C 
BRANCH  36  37
ATOM     37  CG  TRP A   3      -3.039  39.844  22.064  0.00  0.00    -0.002 A 
ATOM     38  CD2 TRP A   3      -4.290  39.833  22.654  0.00  0.00    +0.013 A 
ATOM     39  CE3 TRP A   3      -5.074  40.656  23.444  0.00  0.00    +0.001 A 
ATOM     40  CZ3 TRP A   3      -6.324  40.244  23.804  0.00  0.00    +0.000 A 
ATOM     41  CH2 TRP A   3      -6.787  39.016  23.379  0.00  0.00    +0.001 A 
ATOM     42  CZ2 TRP A   3      -6.013  38.186  22.591  0.00  0.00    +0.017 A 
ATOM     43  CE2 TRP A   3      -4.784  38.595  22.235  0.00  0.00    +0.056 A 
ATOM     44  NE1 TRP A   3      -3.875  37.964  21.470  0.00  0.00    -0.352 N 
ATOM     45  HE1 TRP A   3      -4.003  37.027  21.038  0.00  0.00    +0.166 HD
ATOM     46  CD1 TRP A   3      -2.797  38.714  21.351  0.00  0.00    +0.068 A 
ENDBRANCH  36  37
ENDBRANCH  10  36
ENDBRANCH   6  10
ENDBRANCH   5   7
BRANCH   5  47
ATOM     47  CB  GLU A   4      -3.240  42.131  27.772  0.00  0.00    +0.041 C 
BRANCH  47  48
ATOM     48  CG  GLU A   4      -2.109  41.518  28.613  0.00  0.00    +0.116 C 
BRANCH  48  49
ATOM     49  CD  GLU A   4      -2.549  41.371  30.064  0.00  0.00    +0.365 C 
ATOM     50  OE2 GLU A   4      -1.884  41.859  30.974  0.00  0.00    -0.246 OA
ATOM     51  OE1 GLU A   4      -3.599  40.791  30.290  0.00  0.00    -0.246 OA
ENDBRANCH  48  49
ENDBRANCH  47  48
ENDBRANCH   5  47
ENDBRANCH   1   5
BRANCH   3  52
ATOM     52  CA  ARG A   5       0.240  44.914  26.626  0.00  0.00    +0.149 C 
BRANCH  52  53
ATOM     53  C   ARG A   5       0.096  45.929  25.487  0.00  0.00    +0.241 C 
ATOM     54  O   ARG A   5       0.743  46.989  25.476  0.00  0.00    -0.273 OA
ATOM     55  N   TYR A   6      -0.726  45.682  24.472  0.00  0.00    -0.297 N 
ATOM     56  H   TYR A   6      -1.255  44.787  24.446  0.00  0.00    +0.150 HD
BRANCH  55  57
ATOM     57  CA  TYR A   6      -0.894  46.650  23.396  0.00  0.00    +0.153 C 
BRANCH  57  58
ATOM     58  C   TYR A   6      -2.208  47.400  23.579  0.00  0.00    +0.241 C 
ATOM     59  N   GLN A   7      -2.716  47.372  24.832  0.00  0.00    -0.297 N 
ATOM     60  H   GLN A   7      -2.214  46.816  25.554  0.00  0.00    +0.150 HD
ATOM     61  O   TYR A   6      -2.738  48.011  22.643  0.00  0.00    -0.273 OA
BRANCH  59  62
ATOM     62  CA  GLN A   7      -3.916  48.070  25.223  0.00  0.00    +0.149 C 
BRANCH  62  63
ATOM     63  C   GLN A   7      -3.663  49.001  26.414  0.00  0.00    +0.244 C 
ATOM     64  O   GLN A   7      -4.023  48.687  27.553  0.00  0.00    -0.273 OA
ATOM     65  N   PRO A   8      -3.059  50.175  26.188  0.00  0.00    -0.273 N 
ATOM     66  CA  PRO A   8      -2.783  51.199  27.197  0.00  0.00    +0.140 C 
ATOM     67  CB  PRO A   8      -2.254  52.391  26.437  0.00  0.00    +0.030 C 
ATOM     68  CG  PRO A   8      -1.669  51.822  25.197  0.00  0.00    +0.024 C 
ATOM     69  CD  PRO A   8      -2.613  50.658  24.877  0.00  0.00    +0.094 C 
BRANCH  66  70
ATOM     70  C   PRO A   8      -3.980  51.621  28.034  0.00  0.00    +0.227 C 
ATOM     71  O   PRO A   8      -5.079  51.674  27.494  0.00  0.00    -0.286 OA
ENDBRANCH  66  70
ENDBRANCH  62  63
BRANCH  62  72
ATOM     72  CB  GLN A   7      -4.998  47.024  25.555  0.00  0.00    +0.039 C 
BRANCH  72  73
ATOM     73  CG  GLN A   7      -5.355  46.195  24.302  0.00  0.00    +0.087 C 
BRANCH  73  74
ATOM     74  CD  GLN A   7      -6.623  45.395  24.428  0.00  0.00    +0.219 C 
ATOM     75  OE1 GLN A   7      -7.621  45.886  24.955  0.00  0.00    -0.275 OA
ATOM     76  NE2 GLN A   7      -6.658  44.175  23.915  0.00  0.00    -0.329 N 
ATOM     77 HE21 GLN A   7      -7.536  43.619  23.954  0.00  0.00    +0.145 HD
ATOM     78 HE22 GLN A   7      -5.807  43.772  23.473  0.00  0.00    +0.145 HD
ENDBRANCH  73  74
ENDBRANCH  72  73
ENDBRANCH  62  72
ENDBRANCH  59  62
ENDBRANCH  57  58
BRANCH  57  79
ATOM     79  CB  TYR A   6      -0.804  45.919  22.017  0.00  0.00    +0.055 C 
BRANCH  79  80
ATOM     80  CG  TYR A   6       0.664  45.569  21.723  0.00  0.00    -0.020 A 
ATOM     81  CD2 TYR A   6       1.151  44.336  22.093  0.00  0.00    -0.001 A 
ATOM     82  CE2 TYR A   6       2.495  44.072  22.006  0.00  0.00    +0.036 A 
ATOM     83  CZ  TYR A   6       3.322  45.044  21.530  0.00  0.00    +0.134 A 
ATOM     84  CE1 TYR A   6       2.840  46.291  21.131  0.00  0.00    +0.036 A 
ATOM     85  CD1 TYR A   6       1.491  46.537  21.234  0.00  0.00    -0.001 A 
BRANCH  83  86
ATOM     86  OH  TYR A   6       4.687  44.777  21.453  0.00  0.00    -0.506 OA
ATOM     87  HH  TYR A   6       5.157  45.570  21.091  0.00  0.00    +0.292 HD
ENDBRANCH  83  86
ENDBRANCH  79  80
ENDBRANCH  57  79
ENDBRANCH  55  57
ENDBRANCH  52  53
BRANCH  52  88
ATOM     88  CB  ARG A   5       1.657  44.358  26.675  0.00  0.00    +0.033 C 
BRANCH  88  89
ATOM     89  CG  ARG A   5       1.839  43.447  27.859  0.00  0.00    +0.045 C 
BRANCH  89  90
ATOM     90  CD  ARG A   5       3.301  43.208  28.095  0.00  0.00    +0.174 C 
BRANCH  90  91
ATOM     91  NE  ARG A   5       4.119  44.285  28.658  0.00  0.00    -0.265 N 
ATOM     92  CZ  ARG A   5       5.255  44.031  29.351  0.00  0.00    +0.342 C 
ATOM     93  NH2 ARG A   5       6.016  45.032  29.787  0.00  0.00    -0.292 N 
ATOM     94 HH21 ARG A   5       6.887  44.830  30.318  0.00  0.00    +0.255 HD
ATOM     95 HH22 ARG A   5       5.740  46.016  29.596  0.00  0.00    +0.255 HD
ATOM     96  NH1 ARG A   5       5.649  42.787  29.638  0.00  0.00    -0.292 N 
ATOM     97 HH11 ARG A   5       6.527  42.630  30.172  0.00  0.00    +0.255 HD
ATOM     98 HH12 ARG A   5       5.077  41.976  29.327  0.00  0.00    +0.255 HD
ATOM     99  HE  ARG A   5       3.819  45.272  28.522  0.00  0.00    +0.259 HD
ENDBRANCH  90  91
ENDBRANCH  89  90
ENDBRANCH  88  89
ENDBRANCH  52  88
ENDBRANCH   3  52
TORSDOF 31
REMARK  Name = ../refined-set-2016/1ppi/1ppi_pocket.pdb
REMARK  243 active torsions:
REMARK  status: ('A' for Active; 'I' for Inactive)
REMARK    1  A    between atoms: _1  and  _3
REMARK    2  A    between atoms: _3  and  _4
REMARK    3  A    between atoms: _3  and  _6
REMARK    4  A    between atoms: _6  and  _7
REMARK    5  A    between atoms: _12  and  _14
REMARK    6  A    between atoms: _14  and  _15
REMARK    7  A    between atoms: _14  and  _17
REMARK    8  A    between atoms: _17  and  _18
REMARK    9  A    between atoms: _24  and  _26
REMARK   10  A    between atoms: _26  and  _27
REMARK   11  A    between atoms: _26  and  _29
REMARK   12  A    between atoms: _29  and  _30
REMARK   13  A    between atoms: _30  and  _31
REMARK   14  A    between atoms: _37  and  _38
REMARK   15  A    between atoms: _43  and  _45
REMARK   16  A    between atoms: _45  and  _46
REMARK   17  A    between atoms: _45  and  _48
REMARK   18  A    between atoms: _48  and  _49
REMARK   19  A    between atoms: _54  and  _56
REMARK   20  A    between atoms: _56  and  _57
REMARK   21  A    between atoms: _56  and  _59
REMARK   22  A    between atoms: _62  and  _64
REMARK   23  A    between atoms: _64  and  _65
REMARK   24  A    between atoms: _64  and  _67
REMARK   25  A    between atoms: _71  and  _72
REMARK   26  A    between atoms: _78  and  _79
REMARK   27  A    between atoms: _84  and  _86
REMARK   28  A    between atoms: _86  and  _87
REMARK   29  A    between atoms: _86  and  _89
REMARK   30  A    between atoms: _89  and  _90
REMARK   31  A    between atoms: _100  and  _102
REMARK   32  A    between atoms: _102  and  _103
REMARK   33  A    between atoms: _102  and  _105
REMARK   34  A    between atoms: _105  and  _106
REMARK   35  A    between atoms: _116  and  _118
REMARK   36  A    between atoms: _118  and  _119
REMARK   37  A    between atoms: _118  and  _121
REMARK   38  A    between atoms: _121  and  _122
REMARK   39  A    between atoms: _122  and  _123
REMARK   40  A    between atoms: _126  and  _128
REMARK   41  A    between atoms: _128  and  _129
REMARK   42  A    between atoms: _128  and  _131
REMARK   43  A    between atoms: _131  and  _132
REMARK   44  A    between atoms: _132  and  _133
REMARK   45  A    between atoms: _133  and  _134
REMARK   46  A    between atoms: _143  and  _145
REMARK   47  A    between atoms: _145  and  _146
REMARK   48  A    between atoms: _145  and  _148
REMARK   49  A    between atoms: _148  and  _149
REMARK   50  A    between atoms: _154  and  _155
REMARK   51  A    between atoms: _157  and  _159
REMARK   52  A    between atoms: _159  and  _160
REMARK   53  A    between atoms: _159  and  _162
REMARK   54  A    between atoms: _162  and  _163
REMARK   55  A    between atoms: _163  and  _164
REMARK   56  A    between atoms: _170  and  _171
REMARK   57  A    between atoms: _176  and  _178
REMARK   58  A    between atoms: _178  and  _179
REMARK   59  A    between atoms: _178  and  _181
REMARK   60  A    between atoms: _181  and  _182
REMARK   61  A    between atoms: _185  and  _187
REMARK   62  A    between atoms: _187  and  _188
REMARK   63  A    between atoms: _191  and  _193
REMARK   64  A    between atoms: _193  and  _194
REMARK   65  A    between atoms: _193  and  _196
REMARK   66  A    between atoms: _199  and  _201
REMARK   67  A    between atoms: _201  and  _202
REMARK   68  A    between atoms: _201  and  _204
REMARK   69  A    between atoms: _204  and  _205
REMARK   70  A    between atoms: _208  and  _210
REMARK   71  A    between atoms: _210  and  _211
REMARK   72  A    between atoms: _210  and  _213
REMARK   73  A    between atoms: _213  and  _214
REMARK   74  A    between atoms: _219  and  _221
REMARK   75  A    between atoms: _221  and  _222
REMARK   76  A    between atoms: _221  and  _224
REMARK   77  A    between atoms: _224  and  _225
REMARK   78  A    between atoms: _230  and  _232
REMARK   79  A    between atoms: _232  and  _233
REMARK   80  A    between atoms: _232  and  _235
REMARK   81  A    between atoms: _235  and  _236
REMARK   82  A    between atoms: _236  and  _237
REMARK   83  A    between atoms: _239  and  _241
REMARK   84  A    between atoms: _241  and  _242
REMARK   85  A    between atoms: _241  and  _244
REMARK   86  A    between atoms: _246  and  _248
REMARK   87  A    between atoms: _248  and  _249
REMARK   88  A    between atoms: _251  and  _253
REMARK   89  A    between atoms: _253  and  _254
REMARK   90  A    between atoms: _253  and  _256
REMARK   91  A    between atoms: _256  and  _257
REMARK   92  A    between atoms: _259  and  _261
REMARK   93  A    between atoms: _261  and  _262
REMARK   94  A    between atoms: _264  and  _266
REMARK   95  A    between atoms: _266  and  _267
REMARK   96  A    between atoms: _270  and  _272
REMARK   97  A    between atoms: _272  and  _273
REMARK   98  A    between atoms: _272  and  _275
REMARK   99  A    between atoms: _275  and  _276
REMARK  100  A    between atoms: _279  and  _281
REMARK  101  A    between atoms: _281  and  _282
REMARK  102  A    between atoms: _281  and  _284
REMARK  103  A    between atoms: _284  and  _285
REMARK  104  A    between atoms: _290  and  _291
REMARK  105  A    between atoms: _293  and  _295
REMARK  106  A    between atoms: _295  and  _296
REMARK  107  A    between atoms: _295  and  _298
REMARK  108  A    between atoms: _301  and  _303
REMARK  109  A    between atoms: _303  and  _304
REMARK  110  A    between atoms: _303  and  _306
REMARK  111  A    between atoms: _306  and  _307
REMARK  112  A    between atoms: _307  and  _308
REMARK  113  A    between atoms: _313  and  _315
REMARK  114  A    between atoms: _315  and  _316
REMARK  115  A    between atoms: _315  and  _318
REMARK  116  A    between atoms: _318  and  _319
REMARK  117  A    between atoms: _322  and  _324
REMARK  118  A    between atoms: _324  and  _325
REMARK  119  A    between atoms: _324  and  _327
REMARK  120  A    between atoms: _330  and  _332
REMARK  121  A    between atoms: _332  and  _333
REMARK  122  A    between atoms: _335  and  _337
REMARK  123  A    between atoms: _337  and  _338
REMARK  124  A    between atoms: _337  and  _340
REMARK  125  A    between atoms: _340  and  _341
REMARK  126  A    between atoms: _344  and  _346
REMARK  127  A    between atoms: _346  and  _347
REMARK  128  A    between atoms: _346  and  _349
REMARK  129  A    between atoms: _349  and  _350
REMARK  130  A    between atoms: _353  and  _355
REMARK  131  A    between atoms: _355  and  _356
REMARK  132  A    between atoms: _355  and  _358
REMARK  133  A    between atoms: _358  and  _359
REMARK  134  A    between atoms: _359  and  _360
REMARK  135  A    between atoms: _360  and  _361
REMARK  136  A    between atoms: _370  and  _372
REMARK  137  A    between atoms: _372  and  _373
REMARK  138  A    between atoms: _372  and  _375
REMARK  139  A    between atoms: _375  and  _376
REMARK  140  A    between atoms: _379  and  _381
REMARK  141  A    between atoms: _381  and  _382
REMARK  142  A    between atoms: _381  and  _384
REMARK  143  A    between atoms: _384  and  _385
REMARK  144  A    between atoms: _388  and  _390
REMARK  145  A    between atoms: _390  and  _391
REMARK  146  A    between atoms: _394  and  _396
REMARK  147  A    between atoms: _396  and  _397
REMARK  148  A    between atoms: _396  and  _399
REMARK  149  A    between atoms: _399  and  _400
REMARK  150  A    between atoms: _402  and  _404
REMARK  151  A    between atoms: _404  and  _405
REMARK  152  A    between atoms: _404  and  _407
REMARK  153  A    between atoms: _407  and  _408
REMARK  154  A    between atoms: _408  and  _409
REMARK  155  A    between atoms: _409  and  _410
REMARK  156  A    between atoms: _410  and  _411
REMARK  157  A    between atoms: _415  and  _417
REMARK  158  A    between atoms: _417  and  _418
REMARK  159  A    between atoms: _417  and  _420
REMARK  160  A    between atoms: _420  and  _421
REMARK  161  A    between atoms: _426  and  _428
REMARK  162  A    between atoms: _428  and  _429
REMARK  163  A    between atoms: _428  and  _431
REMARK  164  A    between atoms: _431  and  _432
REMARK  165  A    between atoms: _432  and  _433
REMARK  166  A    between atoms: _436  and  _438
REMARK  167  A    between atoms: _438  and  _439
REMARK  168  A    between atoms: _438  and  _441
REMARK  169  A    between atoms: _444  and  _446
REMARK  170  A    between atoms: _446  and  _447
REMARK  171  A    between atoms: _446  and  _449
REMARK  172  A    between atoms: _449  and  _450
REMARK  173  A    between atoms: _453  and  _455
REMARK  174  A    between atoms: _455  and  _456
REMARK  175  A    between atoms: _455  and  _458
REMARK  176  A    between atoms: _458  and  _459
REMARK  177  A    between atoms: _462  and  _464
REMARK  178  A    between atoms: _464  and  _465
REMARK  179  A    between atoms: _464  and  _467
REMARK  180  A    between atoms: _467  and  _468
REMARK  181  A    between atoms: _471  and  _473
REMARK  182  A    between atoms: _473  and  _474
REMARK  183  A    between atoms: _476  and  _478
REMARK  184  A    between atoms: _478  and  _479
REMARK  185  A    between atoms: _478  and  _481
REMARK  186  A    between atoms: _481  and  _482
REMARK  187  A    between atoms: _482  and  _483
REMARK  188  A    between atoms: _486  and  _488
REMARK  189  A    between atoms: _488  and  _489
REMARK  190  A    between atoms: _488  and  _491
REMARK  191  A    between atoms: _491  and  _492
REMARK  192  A    between atoms: _495  and  _497
REMARK  193  A    between atoms: _497  and  _498
REMARK  194  A    between atoms: _497  and  _500
REMARK  195  A    between atoms: _500  and  _501
REMARK  196  A    between atoms: _507  and  _509
REMARK  197  A    between atoms: _509  and  _510
REMARK  198  A    between atoms: _509  and  _512
REMARK  199  A    between atoms: _512  and  _513
REMARK  200  A    between atoms: _518  and  _520
REMARK  201  A    between atoms: _520  and  _521
REMARK  202  A    between atoms: _520  and  _523
REMARK  203  A    between atoms: _523  and  _524
REMARK  204  A    between atoms: _529  and  _531
REMARK  205  A    between atoms: _531  and  _532
REMARK  206  A    between atoms: _531  and  _534
REMARK  207  A    between atoms: _534  and  _535
REMARK  208  A    between atoms: _538  and  _540
REMARK  209  A    between atoms: _540  and  _541
REMARK  210  A    between atoms: _540  and  _543
REMARK  211  A    between atoms: _543  and  _544
REMARK  212  A    between atoms: _549  and  _551
REMARK  213  A    between atoms: _551  and  _552
REMARK  214  A    between atoms: _551  and  _554
REMARK  215  A    between atoms: _554  and  _555
REMARK  216  A    between atoms: _555  and  _556
REMARK  217  A    between atoms: _556  and  _557
REMARK  218  A    between atoms: _566  and  _568
REMARK  219  A    between atoms: _568  and  _569
REMARK  220  A    between atoms: _571  and  _573
REMARK  221  A    between atoms: _573  and  _574
REMARK  222  A    between atoms: _573  and  _576
REMARK  223  A    between atoms: _576  and  _577
REMARK  224  A    between atoms: _582  and  _584
REMARK  225  A    between atoms: _584  and  _585
REMARK  226  A    between atoms: _587  and  _589
REMARK  227  A    between atoms: _589  and  _590
REMARK  228  A    between atoms: _593  and  _595
REMARK  229  A    between atoms: _595  and  _596
REMARK  230  A    between atoms: _598  and  _600
REMARK  231  A    between atoms: _600  and  _601
REMARK  232  A    between atoms: _600  and  _603
REMARK  233  A    between atoms: _603  and  _604
REMARK  234  A    between atoms: _604  and  _605
REMARK  235  A    between atoms: _605  and  _606
REMARK  236  A    between atoms: _615  and  _617
REMARK  237  A    between atoms: _617  and  _618
REMARK  238  A    between atoms: _617  and  _620
REMARK  239  A    between atoms: _620  and  _621
REMARK  240  A    between atoms: _624  and  _626
REMARK  241  A    between atoms: _626  and  _627
REMARK  242  A    between atoms: _626  and  _629
REMARK  243  A    between atoms: _629  and  _630
REMARK                            x       y       z     vdW  Elec       q    Type
REMARK                         _______ _______ _______ _____ _____    ______ ____
ROOT
ATOM      1  CA  HIS A   6      -4.642  54.087  20.774  0.00  0.00    +0.155 C 
ENDROOT
BRANCH   1   2
ATOM      2  C   HIS A   6      -4.545  53.815  22.249  0.00  0.00    +0.241 C 
ATOM      3  N   MET A   7      -5.734  53.634  22.843  0.00  0.00    -0.297 N 
ATOM      4  H   MET A   7      -6.614  53.813  22.319  0.00  0.00    +0.150 HD
ATOM      5  O   HIS A   6      -3.446  53.802  22.816  0.00  0.00    -0.273 OA
BRANCH   3   6
ATOM      6  CA  MET A   7      -5.783  53.186  24.223  0.00  0.00    +0.149 C 
BRANCH   6   7
ATOM      7  C   MET A   7      -6.263  51.733  24.194  0.00  0.00    +0.241 C 
ATOM      8  N   CYS A   8      -7.044  51.186  25.125  0.00  0.00    -0.296 N 
ATOM      9  H   CYS A   8      -7.351  51.744  25.947  0.00  0.00    +0.150 HD
ATOM     10  O   MET A   7      -5.904  51.010  23.257  0.00  0.00    -0.273 OA
BRANCH   8  11
ATOM     11  CA  CYS A   8      -7.461  49.809  24.981  0.00  0.00    +0.160 C 
BRANCH  11  12
ATOM     12  C   CYS A   8      -8.686  49.649  24.074  0.00  0.00    +0.242 C 
ATOM     13  N   GLY A   9      -9.079  48.389  23.900  0.00  0.00    -0.295 N 
ATOM     14  H   GLY A   9      -8.526  47.626  24.341  0.00  0.00    +0.150 HD
ATOM     15  O   CYS A   8      -9.232  50.603  23.483  0.00  0.00    -0.273 OA
BRANCH  13  16
ATOM     16  CA  GLY A   9     -10.248  48.041  23.119  0.00  0.00    +0.176 C 
BRANCH  16  17
ATOM     17  C   GLY A   9     -11.489  48.603  23.780  0.00  0.00    +0.243 C 
ATOM     18  O   GLY A   9     -11.666  48.527  25.006  0.00  0.00    -0.273 OA
ATOM     19  N   SER A  10     -12.343  49.132  22.892  0.00  0.00    -0.295 N 
ATOM     20  H   SER A  10     -12.102  49.050  21.884  0.00  0.00    +0.150 HD
BRANCH  19  21
ATOM     21  CA  SER A  10     -13.583  49.813  23.237  0.00  0.00    +0.178 C 
BRANCH  21  22
ATOM     22  C   SER A  10     -14.692  48.974  23.875  0.00  0.00    +0.243 C 
ATOM     23  O   SER A  10     -15.633  49.503  24.477  0.00  0.00    -0.273 OA
ATOM     24  N   GLY A  11     -14.609  47.647  23.791  0.00  0.00    -0.295 N 
ATOM     25  H   GLY A  11     -13.832  47.225  23.244  0.00  0.00    +0.150 HD
BRANCH  24  26
ATOM     26  CA  GLY A  11     -15.567  46.772  24.438  0.00  0.00    +0.176 C 
BRANCH  26  27
ATOM     27  C   GLY A  11     -15.003  46.199  25.736  0.00  0.00    +0.243 C 
ATOM     28  O   GLY A  11     -15.613  45.329  26.360  0.00  0.00    -0.273 OA
ATOM     29  N   ALA A  12     -13.832  46.623  26.167  0.00  0.00    -0.298 N 
ATOM     30  H   ALA A  12     -13.285  47.301  25.598  0.00  0.00    +0.150 HD
BRANCH  29  31
ATOM     31  CA  ALA A  12     -13.302  46.149  27.431  0.00  0.00    +0.137 C 
ATOM     32  CB  ALA A  12     -11.848  46.614  27.576  0.00  0.00    +0.030 C 
BRANCH  31  33
ATOM     33  C   ALA A  12     -14.174  46.705  28.566  0.00  0.00    +0.227 C 
ATOM     34  O   ALA A  12     -14.821  47.752  28.440  0.00  0.00    -0.286 OA
ENDBRANCH  31  33
ENDBRANCH  29  31
ENDBRANCH  26  27
ENDBRANCH  24  26
ENDBRANCH  21  22
BRANCH  21  35
ATOM     35  CB  SER A  10     -14.110  50.487  21.976  0.00  0.00    +0.166 C 
BRANCH  35  36
ATOM     36  OG  SER A  10     -14.000  49.694  20.800  0.00  0.00    -0.380 OA
ATOM     37  H   SER A  10     -13.048  49.477  20.637  0.00  0.00    +0.211 HD
ENDBRANCH  35  36
ENDBRANCH  21  35
ENDBRANCH  19  21
ENDBRANCH  16  17
ENDBRANCH  13  16
ENDBRANCH  11  12
BRANCH  11  38
ATOM     38  CB  CYS A   8      -7.712  49.254  26.374  0.00  0.00    +0.098 C 
ATOM     39  SG  CYS A   8      -9.042  50.100  27.241  0.00  0.00    -0.080 S 
ENDBRANCH  11  38
ENDBRANCH   8  11
ENDBRANCH   6   7
BRANCH   6  40
ATOM     40  CB  MET A   7      -6.731  54.062  25.018  0.00  0.00    +0.041 C 
BRANCH  40  41
ATOM     41  CG  MET A   7      -6.193  55.464  25.251  0.00  0.00    +0.060 C 
BRANCH  41  42
ATOM     42  SD  MET A   7      -4.532  55.541  25.974  0.00  0.00    -0.139 S 
ATOM     43  CE  MET A   7      -4.916  55.318  27.691  0.00  0.00    +0.069 C 
ENDBRANCH  41  42
ENDBRANCH  40  41
ENDBRANCH   6  40
ENDBRANCH   3   6
ENDBRANCH   1   2
BRANCH   1  45
ATOM     44  C   ASN A   5      -3.331  55.197  19.108  0.00  0.00    +0.241 C 
ATOM     45  N   HIS A   6      -3.384  54.555  20.263  0.00  0.00    -0.297 N 
ATOM     46  H   HIS A   6      -2.511  54.388  20.803  0.00  0.00    +0.150 HD
ATOM     47  O   ASN A   5      -4.363  55.674  18.598  0.00  0.00    -0.273 OA
BRANCH  44  48
ATOM     48  CA  ASN A   5      -1.948  55.344  18.463  0.00  0.00    +0.158 C 
BRANCH  48  51
ATOM     49  C   ILE A   4      -0.353  56.100  20.167  0.00  0.00    +0.241 C 
ATOM     50  O   ILE A   4      -0.892  57.206  20.162  0.00  0.00    -0.273 OA
ATOM     51  N   ASN A   5      -0.813  55.128  19.365  0.00  0.00    -0.297 N 
ATOM     52  H   ASN A   5      -0.352  54.196  19.384  0.00  0.00    +0.150 HD
BRANCH  49  53
ATOM     53  CA  ILE A   4       0.780  55.807  21.146  0.00  0.00    +0.149 C 
BRANCH  53  56
ATOM     54  C   VAL A   3       1.365  53.671  22.176  0.00  0.00    +0.241 C 
ATOM     55  O   VAL A   3       0.842  53.948  23.262  0.00  0.00    -0.273 OA
ATOM     56  N   ILE A   4       1.316  54.455  21.090  0.00  0.00    -0.297 N 
ATOM     57  H   ILE A   4       1.670  54.088  20.184  0.00  0.00    +0.150 HD
BRANCH  54  58
ATOM     58  CA  VAL A   3       2.152  52.384  22.022  0.00  0.00    +0.149 C 
BRANCH  58  60
ATOM     59  C   ALA A   2       4.479  52.991  21.741  0.00  0.00    +0.241 C 
ATOM     60  N   VAL A   3       3.472  52.709  22.555  0.00  0.00    -0.297 N 
ATOM     61  H   VAL A   3       3.623  52.719  23.584  0.00  0.00    +0.150 HD
ATOM     62  O   ALA A   2       4.316  52.986  20.512  0.00  0.00    -0.273 OA
BRANCH  59  63
ATOM     63  CA  ALA A   2       5.841  53.267  22.365  0.00  0.00    +0.149 C 
ATOM     64  CB  ALA A   2       6.381  54.585  21.843  0.00  0.00    +0.031 C 
BRANCH  63  67
ATOM     65  C   ASP A   1       6.956  51.110  22.810  0.00  0.00    +0.239 C 
ATOM     66  O   ASP A   1       6.326  50.930  23.865  0.00  0.00    -0.274 OA
ATOM     67  N   ALA A   2       6.785  52.198  22.039  0.00  0.00    -0.297 N 
ATOM     68  H   ALA A   2       7.350  52.284  21.170  0.00  0.00    +0.150 HD
BRANCH  65  69
ATOM     69  CA  ASP A   1       8.004  50.102  22.369  0.00  0.00    +0.156 C 
BRANCH  69  70
ATOM     70  N   ASP A   1       9.142  50.301  23.260  0.00  0.00    -0.238 NA
ATOM     71  H   ASP A   1       9.273  49.636  24.049  0.00  0.00    +0.142 HD
ENDBRANCH  69  70
BRANCH  69  72
ATOM     72  CB  ASP A   1       7.534  48.651  22.544  0.00  0.00    +0.140 C 
BRANCH  72  73
ATOM     73  CG  ASP A   1       6.617  48.106  21.463  0.00  0.00    +0.367 C 
ATOM     74  OD2 ASP A   1       6.585  46.888  21.381  0.00  0.00    -0.246 OA
ATOM     75  OD1 ASP A   1       5.951  48.848  20.722  0.00  0.00    -0.246 OA
ENDBRANCH  72  73
ENDBRANCH  69  72
ENDBRANCH  65  69
ENDBRANCH  63  67
ENDBRANCH  59  63
ENDBRANCH  58  60
BRANCH  58  76
ATOM     76  CB  VAL A   3       1.524  51.207  22.826  0.00  0.00    +0.027 C 
ATOM     77  CG2 VAL A   3       2.449  50.011  22.783  0.00  0.00    +0.002 C 
ATOM     78  CG1 VAL A   3       0.180  50.821  22.225  0.00  0.00    +0.002 C 
ENDBRANCH  58  76
ENDBRANCH  54  58
ENDBRANCH  53  56
BRANCH  53  79
ATOM     79  CB  ILE A   4       1.921  56.882  20.938  0.00  0.00    +0.027 C 
ATOM     80  CG2 ILE A   4       2.950  56.759  22.100  0.00  0.00    +0.002 C 
BRANCH  79  81
ATOM     81  CG1 ILE A   4       2.610  56.706  19.607  0.00  0.00    +0.002 C 
ATOM     82  CD1 ILE A   4       3.391  57.936  19.150  0.00  0.00    +0.000 C 
ENDBRANCH  79  81
ENDBRANCH  53  79
ENDBRANCH  49  53
ENDBRANCH  48  51
BRANCH  48  83
ATOM     83  CB  ASN A   5      -1.788  54.368  17.302  0.00  0.00    +0.114 C 
BRANCH  83  84
ATOM     84  CG  ASN A   5      -3.028  54.273  16.419  0.00  0.00    +0.222 C 
ATOM     85  ND2 ASN A   5      -3.772  53.176  16.572  0.00  0.00    -0.329 N 
ATOM     86 HD21 ASN A   5      -3.478  52.438  17.243  0.00  0.00    +0.145 HD
ATOM     87 HD22 ASN A   5      -4.646  53.059  16.020  0.00  0.00    +0.145 HD
ATOM     88  OD1 ASN A   5      -3.377  55.167  15.611  0.00  0.00    -0.275 OA
ENDBRANCH  83  84
ENDBRANCH  48  83
ENDBRANCH  44  48
ENDBRANCH   1  45
BRANCH   1  89
ATOM     89  CB  HIS A   6      -5.058  52.783  20.038  0.00  0.00    +0.076 C 
BRANCH  89  90
ATOM     90  CG  HIS A   6      -4.008  51.667  20.039  0.00  0.00    +0.082 A 
ATOM     91  CD2 HIS A   6      -3.719  50.816  21.055  0.00  0.00    +0.115 A 
ATOM     92  NE2 HIS A   6      -2.761  50.079  20.543  0.00  0.00    -0.221 NA
ATOM     93  CE1 HIS A   6      -2.492  50.454  19.300  0.00  0.00    +0.199 A 
ATOM     94  ND1 HIS A   6      -3.273  51.470  18.958  0.00  0.00    -0.227 NA
ENDBRANCH  89  90
ENDBRANCH   1  89
TORSDOF 39
REMARK  Name = ../refined-set-2016/1ppi/1ppi_pocket.pdb
REMARK  243 active torsions:
REMARK  status: ('A' for Active; 'I' for Inactive)
REMARK    1  A    between atoms: _1  and  _3
REMARK    2  A    between atoms: _3  and  _4
REMARK    3  A    between atoms: _3  and  _6
REMARK    4  A    between atoms: _6  and  _7
REMARK    5  A    between atoms: _12  and  _14
REMARK    6  A    between atoms: _14  and  _15
REMARK    7  A    between atoms: _14  and  _17
REMARK    8  A    between atoms: _17  and  _18
REMARK    9  A    between atoms: _24  and  _26
REMARK   10  A    between atoms: _26  and  _27
REMARK   11  A    between atoms: _26  and  _29
REMARK   12  A    between atoms: _29  and  _30
REMARK   13  A    between atoms: _30  and  _31
REMARK   14  A    between atoms: _37  and  _38
REMARK   15  A    between atoms: _43  and  _45
REMARK   16  A    between atoms: _45  and  _46
REMARK   17  A    between atoms: _45  and  _48
REMARK   18  A    between atoms: _48  and  _49
REMARK   19  A    between atoms: _54  and  _56
REMARK   20  A    between atoms: _56  and  _57
REMARK   21  A    between atoms: _56  and  _59
REMARK   22  A    between atoms: _62  and  _64
REMARK   23  A    between atoms: _64  and  _65
REMARK   24  A    between atoms: _64  and  _67
REMARK   25  A    between atoms: _71  and  _72
REMARK   26  A    between atoms: _78  and  _79
REMARK   27  A    between atoms: _84  and  _86
REMARK   28  A    between atoms: _86  and  _87
REMARK   29  A    between atoms: _86  and  _89
REMARK   30  A    between atoms: _89  and  _90
REMARK   31  A    between atoms: _100  and  _102
REMARK   32  A    between atoms: _102  and  _103
REMARK   33  A    between atoms: _102  and  _105
REMARK   34  A    between atoms: _105  and  _106
REMARK   35  A    between atoms: _116  and  _118
REMARK   36  A    between atoms: _118  and  _119
REMARK   37  A    between atoms: _118  and  _121
REMARK   38  A    between atoms: _121  and  _122
REMARK   39  A    between atoms: _122  and  _123
REMARK   40  A    between atoms: _126  and  _128
REMARK   41  A    between atoms: _128  and  _129
REMARK   42  A    between atoms: _128  and  _131
REMARK   43  A    between atoms: _131  and  _132
REMARK   44  A    between atoms: _132  and  _133
REMARK   45  A    between atoms: _133  and  _134
REMARK   46  A    between atoms: _143  and  _145
REMARK   47  A    between atoms: _145  and  _146
REMARK   48  A    between atoms: _145  and  _148
REMARK   49  A    between atoms: _148  and  _149
REMARK   50  A    between atoms: _154  and  _155
REMARK   51  A    between atoms: _157  and  _159
REMARK   52  A    between atoms: _159  and  _160
REMARK   53  A    between atoms: _159  and  _162
REMARK   54  A    between atoms: _162  and  _163
REMARK   55  A    between atoms: _163  and  _164
REMARK   56  A    between atoms: _170  and  _171
REMARK   57  A    between atoms: _176  and  _178
REMARK   58  A    between atoms: _178  and  _179
REMARK   59  A    between atoms: _178  and  _181
REMARK   60  A    between atoms: _181  and  _182
REMARK   61  A    between atoms: _185  and  _187
REMARK   62  A    between atoms: _187  and  _188
REMARK   63  A    between atoms: _191  and  _193
REMARK   64  A    between atoms: _193  and  _194
REMARK   65  A    between atoms: _193  and  _196
REMARK   66  A    between atoms: _199  and  _201
REMARK   67  A    between atoms: _201  and  _202
REMARK   68  A    between atoms: _201  and  _204
REMARK   69  A    between atoms: _204  and  _205
REMARK   70  A    between atoms: _208  and  _210
REMARK   71  A    between atoms: _210  and  _211
REMARK   72  A    between atoms: _210  and  _213
REMARK   73  A    between atoms: _213  and  _214
REMARK   74  A    between atoms: _219  and  _221
REMARK   75  A    between atoms: _221  and  _222
REMARK   76  A    between atoms: _221  and  _224
REMARK   77  A    between atoms: _224  and  _225
REMARK   78  A    between atoms: _230  and  _232
REMARK   79  A    between atoms: _232  and  _233
REMARK   80  A    between atoms: _232  and  _235
REMARK   81  A    between atoms: _235  and  _236
REMARK   82  A    between atoms: _236  and  _237
REMARK   83  A    between atoms: _239  and  _241
REMARK   84  A    between atoms: _241  and  _242
REMARK   85  A    between atoms: _241  and  _244
REMARK   86  A    between atoms: _246  and  _248
REMARK   87  A    between atoms: _248  and  _249
REMARK   88  A    between atoms: _251  and  _253
REMARK   89  A    between atoms: _253  and  _254
REMARK   90  A    between atoms: _253  and  _256
REMARK   91  A    between atoms: _256  and  _257
REMARK   92  A    between atoms: _259  and  _261
REMARK   93  A    between atoms: _261  and  _262
REMARK   94  A    between atoms: _264  and  _266
REMARK   95  A    between atoms: _266  and  _267
REMARK   96  A    between atoms: _270  and  _272
REMARK   97  A    between atoms: _272  and  _273
REMARK   98  A    between atoms: _272  and  _275
REMARK   99  A    between atoms: _275  and  _276
REMARK  100  A    between atoms: _279  and  _281
REMARK  101  A    between atoms: _281  and  _282
REMARK  102  A    between atoms: _281  and  _284
REMARK  103  A    between atoms: _284  and  _285
REMARK  104  A    between atoms: _290  and  _291
REMARK  105  A    between atoms: _293  and  _295
REMARK  106  A    between atoms: _295  and  _296
REMARK  107  A    between atoms: _295  and  _298
REMARK  108  A    between atoms: _301  and  _303
REMARK  109  A    between atoms: _303  and  _304
REMARK  110  A    between atoms: _303  and  _306
REMARK  111  A    between atoms: _306  and  _307
REMARK  112  A    between atoms: _307  and  _308
REMARK  113  A    between atoms: _313  and  _315
REMARK  114  A    between atoms: _315  and  _316
REMARK  115  A    between atoms: _315  and  _318
REMARK  116  A    between atoms: _318  and  _319
REMARK  117  A    between atoms: _322  and  _324
REMARK  118  A    between atoms: _324  and  _325
REMARK  119  A    between atoms: _324  and  _327
REMARK  120  A    between atoms: _330  and  _332
REMARK  121  A    between atoms: _332  and  _333
REMARK  122  A    between atoms: _335  and  _337
REMARK  123  A    between atoms: _337  and  _338
REMARK  124  A    between atoms: _337  and  _340
REMARK  125  A    between atoms: _340  and  _341
REMARK  126  A    between atoms: _344  and  _346
REMARK  127  A    between atoms: _346  and  _347
REMARK  128  A    between atoms: _346  and  _349
REMARK  129  A    between atoms: _349  and  _350
REMARK  130  A    between atoms: _353  and  _355
REMARK  131  A    between atoms: _355  and  _356
REMARK  132  A    between atoms: _355  and  _358
REMARK  133  A    between atoms: _358  and  _359
REMARK  134  A    between atoms: _359  and  _360
REMARK  135  A    between atoms: _360  and  _361
REMARK  136  A    between atoms: _370  and  _372
REMARK  137  A    between atoms: _372  and  _373
REMARK  138  A    between atoms: _372  and  _375
REMARK  139  A    between atoms: _375  and  _376
REMARK  140  A    between atoms: _379  and  _381
REMARK  141  A    between atoms: _381  and  _382
REMARK  142  A    between atoms: _381  and  _384
REMARK  143  A    between atoms: _384  and  _385
REMARK  144  A    between atoms: _388  and  _390
REMARK  145  A    between atoms: _390  and  _391
REMARK  146  A    between atoms: _394  and  _396
REMARK  147  A    between atoms: _396  and  _397
REMARK  148  A    between atoms: _396  and  _399
REMARK  149  A    between atoms: _399  and  _400
REMARK  150  A    between atoms: _402  and  _404
REMARK  151  A    between atoms: _404  and  _405
REMARK  152  A    between atoms: _404  and  _407
REMARK  153  A    between atoms: _407  and  _408
REMARK  154  A    between atoms: _408  and  _409
REMARK  155  A    between atoms: _409  and  _410
REMARK  156  A    between atoms: _410  and  _411
REMARK  157  A    between atoms: _415  and  _417
REMARK  158  A    between atoms: _417  and  _418
REMARK  159  A    between atoms: _417  and  _420
REMARK  160  A    between atoms: _420  and  _421
REMARK  161  A    between atoms: _426  and  _428
REMARK  162  A    between atoms: _428  and  _429
REMARK  163  A    between atoms: _428  and  _431
REMARK  164  A    between atoms: _431  and  _432
REMARK  165  A    between atoms: _432  and  _433
REMARK  166  A    between atoms: _436  and  _438
REMARK  167  A    between atoms: _438  and  _439
REMARK  168  A    between atoms: _438  and  _441
REMARK  169  A    between atoms: _444  and  _446
REMARK  170  A    between atoms: _446  and  _447
REMARK  171  A    between atoms: _446  and  _449
REMARK  172  A    between atoms: _449  and  _450
REMARK  173  A    between atoms: _453  and  _455
REMARK  174  A    between atoms: _455  and  _456
REMARK  175  A    between atoms: _455  and  _458
REMARK  176  A    between atoms: _458  and  _459
REMARK  177  A    between atoms: _462  and  _464
REMARK  178  A    between atoms: _464  and  _465
REMARK  179  A    between atoms: _464  and  _467
REMARK  180  A    between atoms: _467  and  _468
REMARK  181  A    between atoms: _471  and  _473
REMARK  182  A    between atoms: _473  and  _474
REMARK  183  A    between atoms: _476  and  _478
REMARK  184  A    between atoms: _478  and  _479
REMARK  185  A    between atoms: _478  and  _481
REMARK  186  A    between atoms: _481  and  _482
REMARK  187  A    between atoms: _482  and  _483
REMARK  188  A    between atoms: _486  and  _488
REMARK  189  A    between atoms: _488  and  _489
REMARK  190  A    between atoms: _488  and  _491
REMARK  191  A    between atoms: _491  and  _492
REMARK  192  A    between atoms: _495  and  _497
REMARK  193  A    between atoms: _497  and  _498
REMARK  194  A    between atoms: _497  and  _500
REMARK  195  A    between atoms: _500  and  _501
REMARK  196  A    between atoms: _507  and  _509
REMARK  197  A    between atoms: _509  and  _510
REMARK  198  A    between atoms: _509  and  _512
REMARK  199  A    between atoms: _512  and  _513
REMARK  200  A    between atoms: _518  and  _520
REMARK  201  A    between atoms: _520  and  _521
REMARK  202  A    between atoms: _520  and  _523
REMARK  203  A    between atoms: _523  and  _524
REMARK  204  A    between atoms: _529  and  _531
REMARK  205  A    between atoms: _531  and  _532
REMARK  206  A    between atoms: _531  and  _534
REMARK  207  A    between atoms: _534  and  _535
REMARK  208  A    between atoms: _538  and  _540
REMARK  209  A    between atoms: _540  and  _541
REMARK  210  A    between atoms: _540  and  _543
REMARK  211  A    between atoms: _543  and  _544
REMARK  212  A    between atoms: _549  and  _551
REMARK  213  A    between atoms: _551  and  _552
REMARK  214  A    between atoms: _551  and  _554
REMARK  215  A    between atoms: _554  and  _555
REMARK  216  A    between atoms: _555  and  _556
REMARK  217  A    between atoms: _556  and  _557
REMARK  218  A    between atoms: _566  and  _568
REMARK  219  A    between atoms: _568  and  _569
REMARK  220  A    between atoms: _571  and  _573
REMARK  221  A    between atoms: _573  and  _574
REMARK  222  A    between atoms: _573  and  _576
REMARK  223  A    between atoms: _576  and  _577
REMARK  224  A    between atoms: _582  and  _584
REMARK  225  A    between atoms: _584  and  _585
REMARK  226  A    between atoms: _587  and  _589
REMARK  227  A    between atoms: _589  and  _590
REMARK  228  A    between atoms: _593  and  _595
REMARK  229  A    between atoms: _595  and  _596
REMARK  230  A    between atoms: _598  and  _600
REMARK  231  A    between atoms: _600  and  _601
REMARK  232  A    between atoms: _600  and  _603
REMARK  233  A    between atoms: _603  and  _604
REMARK  234  A    between atoms: _604  and  _605
REMARK  235  A    between atoms: _605  and  _606
REMARK  236  A    between atoms: _615  and  _617
REMARK  237  A    between atoms: _617  and  _618
REMARK  238  A    between atoms: _617  and  _620
REMARK  239  A    between atoms: _620  and  _621
REMARK  240  A    between atoms: _624  and  _626
REMARK  241  A    between atoms: _626  and  _627
REMARK  242  A    between atoms: _626  and  _629
REMARK  243  A    between atoms: _629  and  _630
REMARK                            x       y       z     vdW  Elec       q    Type
REMARK                         _______ _______ _______ _____ _____    ______ ____
ROOT
ATOM      1  CA  ILE A   1     -10.597  49.834   9.439  0.00  0.00    +0.133 C 
ENDROOT
BRANCH   1   2
ATOM      2  N   ILE A   1     -11.259  49.741  10.726  0.00  0.00    -0.239 NA
ATOM      3  H   ILE A   1     -10.780  49.247  11.506  0.00  0.00    +0.142 HD
ENDBRANCH   1   2
BRANCH   1   4
ATOM      4  CB  ILE A   1      -9.079  49.694   9.619  0.00  0.00    +0.023 C 
ATOM      5  CG2 ILE A   1      -8.385  49.743   8.240  0.00  0.00    +0.002 C 
BRANCH   4   6
ATOM      6  CG1 ILE A   1      -8.592  50.796  10.520  0.00  0.00    +0.002 C 
ATOM      7  CD1 ILE A   1      -7.215  50.531  11.138  0.00  0.00    +0.000 C 
ENDBRANCH   4   6
ENDBRANCH   1   4
BRANCH   1   8
ATOM      8  C   ILE A   1     -11.164  48.687   8.634  0.00  0.00    +0.224 C 
ATOM      9  O   ILE A   1     -11.042  47.505   8.988  0.00  0.00    -0.287 OA
ENDBRANCH   1   8
TORSDOF 4
REMARK  Name = ../refined-set-2016/1ppi/1ppi_pocket.pdb
REMARK  243 active torsions:
REMARK  status: ('A' for Active; 'I' for Inactive)
REMARK    1  A    between atoms: _1  and  _3
REMARK    2  A    between atoms: _3  and  _4
REMARK    3  A    between atoms: _3  and  _6
REMARK    4  A    between atoms: _6  and  _7
REMARK    5  A    between atoms: _12  and  _14
REMARK    6  A    between atoms: _14  and  _15
REMARK    7  A    between atoms: _14  and  _17
REMARK    8  A    between atoms: _17  and  _18
REMARK    9  A    between atoms: _24  and  _26
REMARK   10  A    between atoms: _26  and  _27
REMARK   11  A    between atoms: _26  and  _29
REMARK   12  A    between atoms: _29  and  _30
REMARK   13  A    between atoms: _30  and  _31
REMARK   14  A    between atoms: _37  and  _38
REMARK   15  A    between atoms: _43  and  _45
REMARK   16  A    between atoms: _45  and  _46
REMARK   17  A    between atoms: _45  and  _48
REMARK   18  A    between atoms: _48  and  _49
REMARK   19  A    between atoms: _54  and  _56
REMARK   20  A    between atoms: _56  and  _57
REMARK   21  A    between atoms: _56  and  _59
REMARK   22  A    between atoms: _62  and  _64
REMARK   23  A    between atoms: _64  and  _65
REMARK   24  A    between atoms: _64  and  _67
REMARK   25  A    between atoms: _71  and  _72
REMARK   26  A    between atoms: _78  and  _79
REMARK   27  A    between atoms: _84  and  _86
REMARK   28  A    between atoms: _86  and  _87
REMARK   29  A    between atoms: _86  and  _89
REMARK   30  A    between atoms: _89  and  _90
REMARK   31  A    between atoms: _100  and  _102
REMARK   32  A    between atoms: _102  and  _103
REMARK   33  A    between atoms: _102  and  _105
REMARK   34  A    between atoms: _105  and  _106
REMARK   35  A    between atoms: _116  and  _118
REMARK   36  A    between atoms: _118  and  _119
REMARK   37  A    between atoms: _118  and  _121
REMARK   38  A    between atoms: _121  and  _122
REMARK   39  A    between atoms: _122  and  _123
REMARK   40  A    between atoms: _126  and  _128
REMARK   41  A    between atoms: _128  and  _129
REMARK   42  A    between atoms: _128  and  _131
REMARK   43  A    between atoms: _131  and  _132
REMARK   44  A    between atoms: _132  and  _133
REMARK   45  A    between atoms: _133  and  _134
REMARK   46  A    between atoms: _143  and  _145
REMARK   47  A    between atoms: _145  and  _146
REMARK   48  A    between atoms: _145  and  _148
REMARK   49  A    between atoms: _148  and  _149
REMARK   50  A    between atoms: _154  and  _155
REMARK   51  A    between atoms: _157  and  _159
REMARK   52  A    between atoms: _159  and  _160
REMARK   53  A    between atoms: _159  and  _162
REMARK   54  A    between atoms: _162  and  _163
REMARK   55  A    between atoms: _163  and  _164
REMARK   56  A    between atoms: _170  and  _171
REMARK   57  A    between atoms: _176  and  _178
REMARK   58  A    between atoms: _178  and  _179
REMARK   59  A    between atoms: _178  and  _181
REMARK   60  A    between atoms: _181  and  _182
REMARK   61  A    between atoms: _185  and  _187
REMARK   62  A    between atoms: _187  and  _188
REMARK   63  A    between atoms: _191  and  _193
REMARK   64  A    between atoms: _193  and  _194
REMARK   65  A    between atoms: _193  and  _196
REMARK   66  A    between atoms: _199  and  _201
REMARK   67  A    between atoms: _201  and  _202
REMARK   68  A    between atoms: _201  and  _204
REMARK   69  A    between atoms: _204  and  _205
REMARK   70  A    between atoms: _208  and  _210
REMARK   71  A    between atoms: _210  and  _211
REMARK   72  A    between atoms: _210  and  _213
REMARK   73  A    between atoms: _213  and  _214
REMARK   74  A    between atoms: _219  and  _221
REMARK   75  A    between atoms: _221  and  _222
REMARK   76  A    between atoms: _221  and  _224
REMARK   77  A    between atoms: _224  and  _225
REMARK   78  A    between atoms: _230  and  _232
REMARK   79  A    between atoms: _232  and  _233
REMARK   80  A    between atoms: _232  and  _235
REMARK   81  A    between atoms: _235  and  _236
REMARK   82  A    between atoms: _236  and  _237
REMARK   83  A    between atoms: _239  and  _241
REMARK   84  A    between atoms: _241  and  _242
REMARK   85  A    between atoms: _241  and  _244
REMARK   86  A    between atoms: _246  and  _248
REMARK   87  A    between atoms: _248  and  _249
REMARK   88  A    between atoms: _251  and  _253
REMARK   89  A    between atoms: _253  and  _254
REMARK   90  A    between atoms: _253  and  _256
REMARK   91  A    between atoms: _256  and  _257
REMARK   92  A    between atoms: _259  and  _261
REMARK   93  A    between atoms: _261  and  _262
REMARK   94  A    between atoms: _264  and  _266
REMARK   95  A    between atoms: _266  and  _267
REMARK   96  A    between atoms: _270  and  _272
REMARK   97  A    between atoms: _272  and  _273
REMARK   98  A    between atoms: _272  and  _275
REMARK   99  A    between atoms: _275  and  _276
REMARK  100  A    between atoms: _279  and  _281
REMARK  101  A    between atoms: _281  and  _282
REMARK  102  A    between atoms: _281  and  _284
REMARK  103  A    between atoms: _284  and  _285
REMARK  104  A    between atoms: _290  and  _291
REMARK  105  A    between atoms: _293  and  _295
REMARK  106  A    between atoms: _295  and  _296
REMARK  107  A    between atoms: _295  and  _298
REMARK  108  A    between atoms: _301  and  _303
REMARK  109  A    between atoms: _303  and  _304
REMARK  110  A    between atoms: _303  and  _306
REMARK  111  A    between atoms: _306  and  _307
REMARK  112  A    between atoms: _307  and  _308
REMARK  113  A    between atoms: _313  and  _315
REMARK  114  A    between atoms: _315  and  _316
REMARK  115  A    between atoms: _315  and  _318
REMARK  116  A    between atoms: _318  and  _319
REMARK  117  A    between atoms: _322  and  _324
REMARK  118  A    between atoms: _324  and  _325
REMARK  119  A    between atoms: _324  and  _327
REMARK  120  A    between atoms: _330  and  _332
REMARK  121  A    between atoms: _332  and  _333
REMARK  122  A    between atoms: _335  and  _337
REMARK  123  A    between atoms: _337  and  _338
REMARK  124  A    between atoms: _337  and  _340
REMARK  125  A    between atoms: _340  and  _341
REMARK  126  A    between atoms: _344  and  _346
REMARK  127  A    between atoms: _346  and  _347
REMARK  128  A    between atoms: _346  and  _349
REMARK  129  A    between atoms: _349  and  _350
REMARK  130  A    between atoms: _353  and  _355
REMARK  131  A    between atoms: _355  and  _356
REMARK  132  A    between atoms: _355  and  _358
REMARK  133  A    between atoms: _358  and  _359
REMARK  134  A    between atoms: _359  and  _360
REMARK  135  A    between atoms: _360  and  _361
REMARK  136  A    between atoms: _370  and  _372
REMARK  137  A    between atoms: _372  and  _373
REMARK  138  A    between atoms: _372  and  _375
REMARK  139  A    between atoms: _375  and  _376
REMARK  140  A    between atoms: _379  and  _381
REMARK  141  A    between atoms: _381  and  _382
REMARK  142  A    between atoms: _381  and  _384
REMARK  143  A    between atoms: _384  and  _385
REMARK  144  A    between atoms: _388  and  _390
REMARK  145  A    between atoms: _390  and  _391
REMARK  146  A    between atoms: _394  and  _396
REMARK  147  A    between atoms: _396  and  _397
REMARK  148  A    between atoms: _396  and  _399
REMARK  149  A    between atoms: _399  and  _400
REMARK  150  A    between atoms: _402  and  _404
REMARK  151  A    between atoms: _404  and  _405
REMARK  152  A    between atoms: _404  and  _407
REMARK  153  A    between atoms: _407  and  _408
REMARK  154  A    between atoms: _408  and  _409
REMARK  155  A    between atoms: _409  and  _410
REMARK  156  A    between atoms: _410  and  _411
REMARK  157  A    between atoms: _415  and  _417
REMARK  158  A    between atoms: _417  and  _418
REMARK  159  A    between atoms: _417  and  _420
REMARK  160  A    between atoms: _420  and  _421
REMARK  161  A    between atoms: _426  and  _428
REMARK  162  A    between atoms: _428  and  _429
REMARK  163  A    between atoms: _428  and  _431
REMARK  164  A    between atoms: _431  and  _432
REMARK  165  A    between atoms: _432  and  _433
REMARK  166  A    between atoms: _436  and  _438
REMARK  167  A    between atoms: _438  and  _439
REMARK  168  A    between atoms: _438  and  _441
REMARK  169  A    between atoms: _444  and  _446
REMARK  170  A    between atoms: _446  and  _447
REMARK  171  A    between atoms: _446  and  _449
REMARK  172  A    between atoms: _449  and  _450
REMARK  173  A    between atoms: _453  and  _455
REMARK  174  A    between atoms: _455  and  _456
REMARK  175  A    between atoms: _455  and  _458
REMARK  176  A    between atoms: _458  and  _459
REMARK  177  A    between atoms: _462  and  _464
REMARK  178  A    between atoms: _464  and  _465
REMARK  179  A    between atoms: _464  and  _467
REMARK  180  A    between atoms: _467  and  _468
REMARK  181  A    between atoms: _471  and  _473
REMARK  182  A    between atoms: _473  and  _474
REMARK  183  A    between atoms: _476  and  _478
REMARK  184  A    between atoms: _478  and  _479
REMARK  185  A    between atoms: _478  and  _481
REMARK  186  A    between atoms: _481  and  _482
REMARK  187  A    between atoms: _482  and  _483
REMARK  188  A    between atoms: _486  and  _488
REMARK  189  A    between atoms: _488  and  _489
REMARK  190  A    between atoms: _488  and  _491
REMARK  191  A    between atoms: _491  and  _492
REMARK  192  A    between atoms: _495  and  _497
REMARK  193  A    between atoms: _497  and  _498
REMARK  194  A    between atoms: _497  and  _500
REMARK  195  A    between atoms: _500  and  _501
REMARK  196  A    between atoms: _507  and  _509
REMARK  197  A    between atoms: _509  and  _510
REMARK  198  A    between atoms: _509  and  _512
REMARK  199  A    between atoms: _512  and  _513
REMARK  200  A    between atoms: _518  and  _520
REMARK  201  A    between atoms: _520  and  _521
REMARK  202  A    between atoms: _520  and  _523
REMARK  203  A    between atoms: _523  and  _524
REMARK  204  A    between atoms: _529  and  _531
REMARK  205  A    between atoms: _531  and  _532
REMARK  206  A    between atoms: _531  and  _534
REMARK  207  A    between atoms: _534  and  _535
REMARK  208  A    between atoms: _538  and  _540
REMARK  209  A    between atoms: _540  and  _541
REMARK  210  A    between atoms: _540  and  _543
REMARK  211  A    between atoms: _543  and  _544
REMARK  212  A    between atoms: _549  and  _551
REMARK  213  A    between atoms: _551  and  _552
REMARK  214  A    between atoms: _551  and  _554
REMARK  215  A    between atoms: _554  and  _555
REMARK  216  A    between atoms: _555  and  _556
REMARK  217  A    between atoms: _556  and  _557
REMARK  218  A    between atoms: _566  and  _568
REMARK  219  A    between atoms: _568  and  _569
REMARK  220  A    between atoms: _571  and  _573
REMARK  221  A    between atoms: _573  and  _574
REMARK  222  A    between atoms: _573  and  _576
REMARK  223  A    between atoms: _576  and  _577
REMARK  224  A    between atoms: _582  and  _584
REMARK  225  A    between atoms: _584  and  _585
REMARK  226  A    between atoms: _587  and  _589
REMARK  227  A    between atoms: _589  and  _590
REMARK  228  A    between atoms: _593  and  _595
REMARK  229  A    between atoms: _595  and  _596
REMARK  230  A    between atoms: _598  and  _600
REMARK  231  A    between atoms: _600  and  _601
REMARK  232  A    between atoms: _600  and  _603
REMARK  233  A    between atoms: _603  and  _604
REMARK  234  A    between atoms: _604  and  _605
REMARK  235  A    between atoms: _605  and  _606
REMARK  236  A    between atoms: _615  and  _617
REMARK  237  A    between atoms: _617  and  _618
REMARK  238  A    between atoms: _617  and  _620
REMARK  239  A    between atoms: _620  and  _621
REMARK  240  A    between atoms: _624  and  _626
REMARK  241  A    between atoms: _626  and  _627
REMARK  242  A    between atoms: _626  and  _629
REMARK  243  A    between atoms: _629  and  _630
REMARK                            x       y       z     vdW  Elec       q    Type
REMARK                         _______ _______ _______ _____ _____    ______ ____
ROOT
ATOM      1  CG  TYR A   1      -5.162  48.030   5.506  0.00  0.00    -0.020 A 
ATOM      2  CD2 TYR A   1      -4.136  48.640   6.231  0.00  0.00    -0.001 A 
ATOM      3  CE2 TYR A   1      -4.017  48.375   7.587  0.00  0.00    +0.036 A 
ATOM      4  CZ  TYR A   1      -4.918  47.519   8.184  0.00  0.00    +0.134 A 
ATOM      5  CE1 TYR A   1      -5.892  46.926   7.500  0.00  0.00    +0.036 A 
ATOM      6  CD1 TYR A   1      -6.021  47.181   6.146  0.00  0.00    -0.001 A 
ENDROOT
BRANCH   4   7
ATOM      7  OH  TYR A   1      -4.842  47.327   9.547  0.00  0.00    -0.506 OA
ATOM      8  HH  TYR A   1      -5.547  46.692   9.829  0.00  0.00    +0.292 HD
ENDBRANCH   4   7
BRANCH   1   9
ATOM      9  CB  TYR A   1      -5.341  48.329   4.027  0.00  0.00    +0.051 C 
BRANCH   9  10
ATOM     10  CA  TYR A   1      -6.402  49.399   3.760  0.00  0.00    +0.137 C 
BRANCH  10  11
ATOM     11  N   TYR A   1      -7.704  48.766   3.681  0.00  0.00    -0.239 NA
ATOM     12  H   TYR A   1      -7.795  47.785   3.348  0.00  0.00    +0.142 HD
ENDBRANCH  10  11
BRANCH  10  13
ATOM     13  C   TYR A   1      -6.110  50.169   2.481  0.00  0.00    +0.224 C 
ATOM     14  O   TYR A   1      -4.975  50.578   2.230  0.00  0.00    -0.287 OA
ENDBRANCH  10  13
ENDBRANCH   9  10
ENDBRANCH   1   9
TORSDOF 5
REMARK  Name = ../refined-set-2016/1ppi/1ppi_pocket.pdb
REMARK  243 active torsions:
REMARK  status: ('A' for Active; 'I' for Inactive)
REMARK    1  A    between atoms: _1  and  _3
REMARK    2  A    between atoms: _3  and  _4
REMARK    3  A    between atoms: _3  and  _6
REMARK    4  A    between atoms: _6  and  _7
REMARK    5  A    between atoms: _12  and  _14
REMARK    6  A    between atoms: _14  and  _15
REMARK    7  A    between atoms: _14  and  _17
REMARK    8  A    between atoms: _17  and  _18
REMARK    9  A    between atoms: _24  and  _26
REMARK   10  A    between atoms: _26  and  _27
REMARK   11  A    between atoms: _26  and  _29
REMARK   12  A    between atoms: _29  and  _30
REMARK   13  A    between atoms: _30  and  _31
REMARK   14  A    between atoms: _37  and  _38
REMARK   15  A    between atoms: _43  and  _45
REMARK   16  A    between atoms: _45  and  _46
REMARK   17  A    between atoms: _45  and  _48
REMARK   18  A    between atoms: _48  and  _49
REMARK   19  A    between atoms: _54  and  _56
REMARK   20  A    between atoms: _56  and  _57
REMARK   21  A    between atoms: _56  and  _59
REMARK   22  A    between atoms: _62  and  _64
REMARK   23  A    between atoms: _64  and  _65
REMARK   24  A    between atoms: _64  and  _67
REMARK   25  A    between atoms: _71  and  _72
REMARK   26  A    between atoms: _78  and  _79
REMARK   27  A    between atoms: _84  and  _86
REMARK   28  A    between atoms: _86  and  _87
REMARK   29  A    between atoms: _86  and  _89
REMARK   30  A    between atoms: _89  and  _90
REMARK   31  A    between atoms: _100  and  _102
REMARK   32  A    between atoms: _102  and  _103
REMARK   33  A    between atoms: _102  and  _105
REMARK   34  A    between atoms: _105  and  _106
REMARK   35  A    between atoms: _116  and  _118
REMARK   36  A    between atoms: _118  and  _119
REMARK   37  A    between atoms: _118  and  _121
REMARK   38  A    between atoms: _121  and  _122
REMARK   39  A    between atoms: _122  and  _123
REMARK   40  A    between atoms: _126  and  _128
REMARK   41  A    between atoms: _128  and  _129
REMARK   42  A    between atoms: _128  and  _131
REMARK   43  A    between atoms: _131  and  _132
REMARK   44  A    between atoms: _132  and  _133
REMARK   45  A    between atoms: _133  and  _134
REMARK   46  A    between atoms: _143  and  _145
REMARK   47  A    between atoms: _145  and  _146
REMARK   48  A    between atoms: _145  and  _148
REMARK   49  A    between atoms: _148  and  _149
REMARK   50  A    between atoms: _154  and  _155
REMARK   51  A    between atoms: _157  and  _159
REMARK   52  A    between atoms: _159  and  _160
REMARK   53  A    between atoms: _159  and  _162
REMARK   54  A    between atoms: _162  and  _163
REMARK   55  A    between atoms: _163  and  _164
REMARK   56  A    between atoms: _170  and  _171
REMARK   57  A    between atoms: _176  and  _178
REMARK   58  A    between atoms: _178  and  _179
REMARK   59  A    between atoms: _178  and  _181
REMARK   60  A    between atoms: _181  and  _182
REMARK   61  A    between atoms: _185  and  _187
REMARK   62  A    between atoms: _187  and  _188
REMARK   63  A    between atoms: _191  and  _193
REMARK   64  A    between atoms: _193  and  _194
REMARK   65  A    between atoms: _193  and  _196
REMARK   66  A    between atoms: _199  and  _201
REMARK   67  A    between atoms: _201  and  _202
REMARK   68  A    between atoms: _201  and  _204
REMARK   69  A    between atoms: _204  and  _205
REMARK   70  A    between atoms: _208  and  _210
REMARK   71  A    between atoms: _210  and  _211
REMARK   72  A    between atoms: _210  and  _213
REMARK   73  A    between atoms: _213  and  _214
REMARK   74  A    between atoms: _219  and  _221
REMARK   75  A    between atoms: _221  and  _222
REMARK   76  A    between atoms: _221  and  _224
REMARK   77  A    between atoms: _224  and  _225
REMARK   78  A    between atoms: _230  and  _232
REMARK   79  A    between atoms: _232  and  _233
REMARK   80  A    between atoms: _232  and  _235
REMARK   81  A    between atoms: _235  and  _236
REMARK   82  A    between atoms: _236  and  _237
REMARK   83  A    between atoms: _239  and  _241
REMARK   84  A    between atoms: _241  and  _242
REMARK   85  A    between atoms: _241  and  _244
REMARK   86  A    between atoms: _246  and  _248
REMARK   87  A    between atoms: _248  and  _249
REMARK   88  A    between atoms: _251  and  _253
REMARK   89  A    between atoms: _253  and  _254
REMARK   90  A    between atoms: _253  and  _256
REMARK   91  A    between atoms: _256  and  _257
REMARK   92  A    between atoms: _259  and  _261
REMARK   93  A    between atoms: _261  and  _262
REMARK   94  A    between atoms: _264  and  _266
REMARK   95  A    between atoms: _266  and  _267
REMARK   96  A    between atoms: _270  and  _272
REMARK   97  A    between atoms: _272  and  _273
REMARK   98  A    between atoms: _272  and  _275
REMARK   99  A    between atoms: _275  and  _276
REMARK  100  A    between atoms: _279  and  _281
REMARK  101  A    between atoms: _281  and  _282
REMARK  102  A    between atoms: _281  and  _284
REMARK  103  A    between atoms: _284  and  _285
REMARK  104  A    between atoms: _290  and  _291
REMARK  105  A    between atoms: _293  and  _295
REMARK  106  A    between atoms: _295  and  _296
REMARK  107  A    between atoms: _295  and  _298
REMARK  108  A    between atoms: _301  and  _303
REMARK  109  A    between atoms: _303  and  _304
REMARK  110  A    between atoms: _303  and  _306
REMARK  111  A    between atoms: _306  and  _307
REMARK  112  A    between atoms: _307  and  _308
REMARK  113  A    between atoms: _313  and  _315
REMARK  114  A    between atoms: _315  and  _316
REMARK  115  A    between atoms: _315  and  _318
REMARK  116  A    between atoms: _318  and  _319
REMARK  117  A    between atoms: _322  and  _324
REMARK  118  A    between atoms: _324  and  _325
REMARK  119  A    between atoms: _324  and  _327
REMARK  120  A    between atoms: _330  and  _332
REMARK  121  A    between atoms: _332  and  _333
REMARK  122  A    between atoms: _335  and  _337
REMARK  123  A    between atoms: _337  and  _338
REMARK  124  A    between atoms: _337  and  _340
REMARK  125  A    between atoms: _340  and  _341
REMARK  126  A    between atoms: _344  and  _346
REMARK  127  A    between atoms: _346  and  _347
REMARK  128  A    between atoms: _346  and  _349
REMARK  129  A    between atoms: _349  and  _350
REMARK  130  A    between atoms: _353  and  _355
REMARK  131  A    between atoms: _355  and  _356
REMARK  132  A    between atoms: _355  and  _358
REMARK  133  A    between atoms: _358  and  _359
REMARK  134  A    between atoms: _359  and  _360
REMARK  135  A    between atoms: _360  and  _361
REMARK  136  A    between atoms: _370  and  _372
REMARK  137  A    between atoms: _372  and  _373
REMARK  138  A    between atoms: _372  and  _375
REMARK  139  A    between atoms: _375  and  _376
REMARK  140  A    between atoms: _379  and  _381
REMARK  141  A    between atoms: _381  and  _382
REMARK  142  A    between atoms: _381  and  _384
REMARK  143  A    between atoms: _384  and  _385
REMARK  144  A    between atoms: _388  and  _390
REMARK  145  A    between atoms: _390  and  _391
REMARK  146  A    between atoms: _394  and  _396
REMARK  147  A    between atoms: _396  and  _397
REMARK  148  A    between atoms: _396  and  _399
REMARK  149  A    between atoms: _399  and  _400
REMARK  150  A    between atoms: _402  and  _404
REMARK  151  A    between atoms: _404  and  _405
REMARK  152  A    between atoms: _404  and  _407
REMARK  153  A    between atoms: _407  and  _408
REMARK  154  A    between atoms: _408  and  _409
REMARK  155  A    between atoms: _409  and  _410
REMARK  156  A    between atoms: _410  and  _411
REMARK  157  A    between atoms: _415  and  _417
REMARK  158  A    between atoms: _417  and  _418
REMARK  159  A    between atoms: _417  and  _420
REMARK  160  A    between atoms: _420  and  _421
REMARK  161  A    between atoms: _426  and  _428
REMARK  162  A    between atoms: _428  and  _429
REMARK  163  A    between atoms: _428  and  _431
REMARK  164  A    between atoms: _431  and  _432
REMARK  165  A    between atoms: _432  and  _433
REMARK  166  A    between atoms: _436  and  _438
REMARK  167  A    between atoms: _438  and  _439
REMARK  168  A    between atoms: _438  and  _441
REMARK  169  A    between atoms: _444  and  _446
REMARK  170  A    between atoms: _446  and  _447
REMARK  171  A    between atoms: _446  and  _449
REMARK  172  A    between atoms: _449  and  _450
REMARK  173  A    between atoms: _453  and  _455
REMARK  174  A    between atoms: _455  and  _456
REMARK  175  A    between atoms: _455  and  _458
REMARK  176  A    between atoms: _458  and  _459
REMARK  177  A    between atoms: _462  and  _464
REMARK  178  A    between atoms: _464  and  _465
REMARK  179  A    between atoms: _464  and  _467
REMARK  180  A    between atoms: _467  and  _468
REMARK  181  A    between atoms: _471  and  _473
REMARK  182  A    between atoms: _473  and  _474
REMARK  183  A    between atoms: _476  and  _478
REMARK  184  A    between atoms: _478  and  _479
REMARK  185  A    between atoms: _478  and  _481
REMARK  186  A    between atoms: _481  and  _482
REMARK  187  A    between atoms: _482  and  _483
REMARK  188  A    between atoms: _486  and  _488
REMARK  189  A    between atoms: _488  and  _489
REMARK  190  A    between atoms: _488  and  _491
REMARK  191  A    between atoms: _491  and  _492
REMARK  192  A    between atoms: _495  and  _497
REMARK  193  A    between atoms: _497  and  _498
REMARK  194  A    between atoms: _497  and  _500
REMARK  195  A    between atoms: _500  and  _501
REMARK  196  A    between atoms: _507  and  _509
REMARK  197  A    between atoms: _509  and  _510
REMARK  198  A    between atoms: _509  and  _512
REMARK  199  A    between atoms: _512  and  _513
REMARK  200  A    between atoms: _518  and  _520
REMARK  201  A    between atoms: _520  and  _521
REMARK  202  A    between atoms: _520  and  _523
REMARK  203  A    between atoms: _523  and  _524
REMARK  204  A    between atoms: _529  and  _531
REMARK  205  A    between atoms: _531  and  _532
REMARK  206  A    between atoms: _531  and  _534
REMARK  207  A    between atoms: _534  and  _535
REMARK  208  A    between atoms: _538  and  _540
REMARK  209  A    between atoms: _540  and  _541
REMARK  210  A    between atoms: _540  and  _543
REMARK  211  A    between atoms: _543  and  _544
REMARK  212  A    between atoms: _549  and  _551
REMARK  213  A    between atoms: _551  and  _552
REMARK  214  A    between atoms: _551  and  _554
REMARK  215  A    between atoms: _554  and  _555
REMARK  216  A    between atoms: _555  and  _556
REMARK  217  A    between atoms: _556  and  _557
REMARK  218  A    between atoms: _566  and  _568
REMARK  219  A    between atoms: _568  and  _569
REMARK  220  A    between atoms: _571  and  _573
REMARK  221  A    between atoms: _573  and  _574
REMARK  222  A    between atoms: _573  and  _576
REMARK  223  A    between atoms: _576  and  _577
REMARK  224  A    between atoms: _582  and  _584
REMARK  225  A    between atoms: _584  and  _585
REMARK  226  A    between atoms: _587  and  _589
REMARK  227  A    between atoms: _589  and  _590
REMARK  228  A    between atoms: _593  and  _595
REMARK  229  A    between atoms: _595  and  _596
REMARK  230  A    between atoms: _598  and  _600
REMARK  231  A    between atoms: _600  and  _601
REMARK  232  A    between atoms: _600  and  _603
REMARK  233  A    between atoms: _603  and  _604
REMARK  234  A    between atoms: _604  and  _605
REMARK  235  A    between atoms: _605  and  _606
REMARK  236  A    between atoms: _615  and  _617
REMARK  237  A    between atoms: _617  and  _618
REMARK  238  A    between atoms: _617  and  _620
REMARK  239  A    between atoms: _620  and  _621
REMARK  240  A    between atoms: _624  and  _626
REMARK  241  A    between atoms: _626  and  _627
REMARK  242  A    between atoms: _626  and  _629
REMARK  243  A    between atoms: _629  and  _630
REMARK                            x       y       z     vdW  Elec       q    Type
REMARK                         _______ _______ _______ _____ _____    ______ ____
ROOT
ATOM      1  CA  VAL A   1      -6.600  53.298   8.480  0.00  0.00    +0.133 C 
ENDROOT
BRANCH   1   2
ATOM      2  CB  VAL A   1      -5.531  52.474   7.564  0.00  0.00    +0.023 C 
ATOM      3  CG2 VAL A   1      -4.079  52.899   7.864  0.00  0.00    +0.002 C 
ATOM      4  CG1 VAL A   1      -5.948  52.529   6.117  0.00  0.00    +0.002 C 
ENDBRANCH   1   2
BRANCH   1   5
ATOM      5  N   VAL A   1      -7.530  54.046   7.680  0.00  0.00    -0.239 NA
ATOM      6  H   VAL A   1      -7.309  54.376   6.719  0.00  0.00    +0.142 HD
ENDBRANCH   1   5
BRANCH   1   7
ATOM      7  C   VAL A   1      -5.950  54.213   9.531  0.00  0.00    +0.224 C 
ATOM      8  O   VAL A   1      -5.517  53.701  10.578  0.00  0.00    -0.287 OA
ENDBRANCH   1   7
TORSDOF 3
REMARK  Name = ../refined-set-2016/1ppi/1ppi_pocket.pdb
REMARK  243 active torsions:
REMARK  status: ('A' for Active; 'I' for Inactive)
REMARK    1  A    between atoms: _1  and  _3
REMARK    2  A    between atoms: _3  and  _4
REMARK    3  A    between atoms: _3  and  _6
REMARK    4  A    between atoms: _6  and  _7
REMARK    5  A    between atoms: _12  and  _14
REMARK    6  A    between atoms: _14  and  _15
REMARK    7  A    between atoms: _14  and  _17
REMARK    8  A    between atoms: _17  and  _18
REMARK    9  A    between atoms: _24  and  _26
REMARK   10  A    between atoms: _26  and  _27
REMARK   11  A    between atoms: _26  and  _29
REMARK   12  A    between atoms: _29  and  _30
REMARK   13  A    between atoms: _30  and  _31
REMARK   14  A    between atoms: _37  and  _38
REMARK   15  A    between atoms: _43  and  _45
REMARK   16  A    between atoms: _45  and  _46
REMARK   17  A    between atoms: _45  and  _48
REMARK   18  A    between atoms: _48  and  _49
REMARK   19  A    between atoms: _54  and  _56
REMARK   20  A    between atoms: _56  and  _57
REMARK   21  A    between atoms: _56  and  _59
REMARK   22  A    between atoms: _62  and  _64
REMARK   23  A    between atoms: _64  and  _65
REMARK   24  A    between atoms: _64  and  _67
REMARK   25  A    between atoms: _71  and  _72
REMARK   26  A    between atoms: _78  and  _79
REMARK   27  A    between atoms: _84  and  _86
REMARK   28  A    between atoms: _86  and  _87
REMARK   29  A    between atoms: _86  and  _89
REMARK   30  A    between atoms: _89  and  _90
REMARK   31  A    between atoms: _100  and  _102
REMARK   32  A    between atoms: _102  and  _103
REMARK   33  A    between atoms: _102  and  _105
REMARK   34  A    between atoms: _105  and  _106
REMARK   35  A    between atoms: _116  and  _118
REMARK   36  A    between atoms: _118  and  _119
REMARK   37  A    between atoms: _118  and  _121
REMARK   38  A    between atoms: _121  and  _122
REMARK   39  A    between atoms: _122  and  _123
REMARK   40  A    between atoms: _126  and  _128
REMARK   41  A    between atoms: _128  and  _129
REMARK   42  A    between atoms: _128  and  _131
REMARK   43  A    between atoms: _131  and  _132
REMARK   44  A    between atoms: _132  and  _133
REMARK   45  A    between atoms: _133  and  _134
REMARK   46  A    between atoms: _143  and  _145
REMARK   47  A    between atoms: _145  and  _146
REMARK   48  A    between atoms: _145  and  _148
REMARK   49  A    between atoms: _148  and  _149
REMARK   50  A    between atoms: _154  and  _155
REMARK   51  A    between atoms: _157  and  _159
REMARK   52  A    between atoms: _159  and  _160
REMARK   53  A    between atoms: _159  and  _162
REMARK   54  A    between atoms: _162  and  _163
REMARK   55  A    between atoms: _163  and  _164
REMARK   56  A    between atoms: _170  and  _171
REMARK   57  A    between atoms: _176  and  _178
REMARK   58  A    between atoms: _178  and  _179
REMARK   59  A    between atoms: _178  and  _181
REMARK   60  A    between atoms: _181  and  _182
REMARK   61  A    between atoms: _185  and  _187
REMARK   62  A    between atoms: _187  and  _188
REMARK   63  A    between atoms: _191  and  _193
REMARK   64  A    between atoms: _193  and  _194
REMARK   65  A    between atoms: _193  and  _196
REMARK   66  A    between atoms: _199  and  _201
REMARK   67  A    between atoms: _201  and  _202
REMARK   68  A    between atoms: _201  and  _204
REMARK   69  A    between atoms: _204  and  _205
REMARK   70  A    between atoms: _208  and  _210
REMARK   71  A    between atoms: _210  and  _211
REMARK   72  A    between atoms: _210  and  _213
REMARK   73  A    between atoms: _213  and  _214
REMARK   74  A    between atoms: _219  and  _221
REMARK   75  A    between atoms: _221  and  _222
REMARK   76  A    between atoms: _221  and  _224
REMARK   77  A    between atoms: _224  and  _225
REMARK   78  A    between atoms: _230  and  _232
REMARK   79  A    between atoms: _232  and  _233
REMARK   80  A    between atoms: _232  and  _235
REMARK   81  A    between atoms: _235  and  _236
REMARK   82  A    between atoms: _236  and  _237
REMARK   83  A    between atoms: _239  and  _241
REMARK   84  A    between atoms: _241  and  _242
REMARK   85  A    between atoms: _241  and  _244
REMARK   86  A    between atoms: _246  and  _248
REMARK   87  A    between atoms: _248  and  _249
REMARK   88  A    between atoms: _251  and  _253
REMARK   89  A    between atoms: _253  and  _254
REMARK   90  A    between atoms: _253  and  _256
REMARK   91  A    between atoms: _256  and  _257
REMARK   92  A    between atoms: _259  and  _261
REMARK   93  A    between atoms: _261  and  _262
REMARK   94  A    between atoms: _264  and  _266
REMARK   95  A    between atoms: _266  and  _267
REMARK   96  A    between atoms: _270  and  _272
REMARK   97  A    between atoms: _272  and  _273
REMARK   98  A    between atoms: _272  and  _275
REMARK   99  A    between atoms: _275  and  _276
REMARK  100  A    between atoms: _279  and  _281
REMARK  101  A    between atoms: _281  and  _282
REMARK  102  A    between atoms: _281  and  _284
REMARK  103  A    between atoms: _284  and  _285
REMARK  104  A    between atoms: _290  and  _291
REMARK  105  A    between atoms: _293  and  _295
REMARK  106  A    between atoms: _295  and  _296
REMARK  107  A    between atoms: _295  and  _298
REMARK  108  A    between atoms: _301  and  _303
REMARK  109  A    between atoms: _303  and  _304
REMARK  110  A    between atoms: _303  and  _306
REMARK  111  A    between atoms: _306  and  _307
REMARK  112  A    between atoms: _307  and  _308
REMARK  113  A    between atoms: _313  and  _315
REMARK  114  A    between atoms: _315  and  _316
REMARK  115  A    between atoms: _315  and  _318
REMARK  116  A    between atoms: _318  and  _319
REMARK  117  A    between atoms: _322  and  _324
REMARK  118  A    between atoms: _324  and  _325
REMARK  119  A    between atoms: _324  and  _327
REMARK  120  A    between atoms: _330  and  _332
REMARK  121  A    between atoms: _332  and  _333
REMARK  122  A    between atoms: _335  and  _337
REMARK  123  A    between atoms: _337  and  _338
REMARK  124  A    between atoms: _337  and  _340
REMARK  125  A    between atoms: _340  and  _341
REMARK  126  A    between atoms: _344  and  _346
REMARK  127  A    between atoms: _346  and  _347
REMARK  128  A    between atoms: _346  and  _349
REMARK  129  A    between atoms: _349  and  _350
REMARK  130  A    between atoms: _353  and  _355
REMARK  131  A    between atoms: _355  and  _356
REMARK  132  A    between atoms: _355  and  _358
REMARK  133  A    between atoms: _358  and  _359
REMARK  134  A    between atoms: _359  and  _360
REMARK  135  A    between atoms: _360  and  _361
REMARK  136  A    between atoms: _370  and  _372
REMARK  137  A    between atoms: _372  and  _373
REMARK  138  A    between atoms: _372  and  _375
REMARK  139  A    between atoms: _375  and  _376
REMARK  140  A    between atoms: _379  and  _381
REMARK  141  A    between atoms: _381  and  _382
REMARK  142  A    between atoms: _381  and  _384
REMARK  143  A    between atoms: _384  and  _385
REMARK  144  A    between atoms: _388  and  _390
REMARK  145  A    between atoms: _390  and  _391
REMARK  146  A    between atoms: _394  and  _396
REMARK  147  A    between atoms: _396  and  _397
REMARK  148  A    between atoms: _396  and  _399
REMARK  149  A    between atoms: _399  and  _400
REMARK  150  A    between atoms: _402  and  _404
REMARK  151  A    between atoms: _404  and  _405
REMARK  152  A    between atoms: _404  and  _407
REMARK  153  A    between atoms: _407  and  _408
REMARK  154  A    between atoms: _408  and  _409
REMARK  155  A    between atoms: _409  and  _410
REMARK  156  A    between atoms: _410  and  _411
REMARK  157  A    between atoms: _415  and  _417
REMARK  158  A    between atoms: _417  and  _418
REMARK  159  A    between atoms: _417  and  _420
REMARK  160  A    between atoms: _420  and  _421
REMARK  161  A    between atoms: _426  and  _428
REMARK  162  A    between atoms: _428  and  _429
REMARK  163  A    between atoms: _428  and  _431
REMARK  164  A    between atoms: _431  and  _432
REMARK  165  A    between atoms: _432  and  _433
REMARK  166  A    between atoms: _436  and  _438
REMARK  167  A    between atoms: _438  and  _439
REMARK  168  A    between atoms: _438  and  _441
REMARK  169  A    between atoms: _444  and  _446
REMARK  170  A    between atoms: _446  and  _447
REMARK  171  A    between atoms: _446  and  _449
REMARK  172  A    between atoms: _449  and  _450
REMARK  173  A    between atoms: _453  and  _455
REMARK  174  A    between atoms: _455  and  _456
REMARK  175  A    between atoms: _455  and  _458
REMARK  176  A    between atoms: _458  and  _459
REMARK  177  A    between atoms: _462  and  _464
REMARK  178  A    between atoms: _464  and  _465
REMARK  179  A    between atoms: _464  and  _467
REMARK  180  A    between atoms: _467  and  _468
REMARK  181  A    between atoms: _471  and  _473
REMARK  182  A    between atoms: _473  and  _474
REMARK  183  A    between atoms: _476  and  _478
REMARK  184  A    between atoms: _478  and  _479
REMARK  185  A    between atoms: _478  and  _481
REMARK  186  A    between atoms: _481  and  _482
REMARK  187  A    between atoms: _482  and  _483
REMARK  188  A    between atoms: _486  and  _488
REMARK  189  A    between atoms: _488  and  _489
REMARK  190  A    between atoms: _488  and  _491
REMARK  191  A    between atoms: _491  and  _492
REMARK  192  A    between atoms: _495  and  _497
REMARK  193  A    between atoms: _497  and  _498
REMARK  194  A    between atoms: _497  and  _500
REMARK  195  A    between atoms: _500  and  _501
REMARK  196  A    between atoms: _507  and  _509
REMARK  197  A    between atoms: _509  and  _510
REMARK  198  A    between atoms: _509  and  _512
REMARK  199  A    between atoms: _512  and  _513
REMARK  200  A    between atoms: _518  and  _520
REMARK  201  A    between atoms: _520  and  _521
REMARK  202  A    between atoms: _520  and  _523
REMARK  203  A    between atoms: _523  and  _524
REMARK  204  A    between atoms: _529  and  _531
REMARK  205  A    between atoms: _531  and  _532
REMARK  206  A    between atoms: _531  and  _534
REMARK  207  A    between atoms: _534  and  _535
REMARK  208  A    between atoms: _538  and  _540
REMARK  209  A    between atoms: _540  and  _541
REMARK  210  A    between atoms: _540  and  _543
REMARK  211  A    between atoms: _543  and  _544
REMARK  212  A    between atoms: _549  and  _551
REMARK  213  A    between atoms: _551  and  _552
REMARK  214  A    between atoms: _551  and  _554
REMARK  215  A    between atoms: _554  and  _555
REMARK  216  A    between atoms: _555  and  _556
REMARK  217  A    between atoms: _556  and  _557
REMARK  218  A    between atoms: _566  and  _568
REMARK  219  A    between atoms: _568  and  _569
REMARK  220  A    between atoms: _571  and  _573
REMARK  221  A    between atoms: _573  and  _574
REMARK  222  A    between atoms: _573  and  _576
REMARK  223  A    between atoms: _576  and  _577
REMARK  224  A    between atoms: _582  and  _584
REMARK  225  A    between atoms: _584  and  _585
REMARK  226  A    between atoms: _587  and  _589
REMARK  227  A    between atoms: _589  and  _590
REMARK  228  A    between atoms: _593  and  _595
REMARK  229  A    between atoms: _595  and  _596
REMARK  230  A    between atoms: _598  and  _600
REMARK  231  A    between atoms: _600  and  _601
REMARK  232  A    between atoms: _600  and  _603
REMARK  233  A    between atoms: _603  and  _604
REMARK  234  A    between atoms: _604  and  _605
REMARK  235  A    between atoms: _605  and  _606
REMARK  236  A    between atoms: _615  and  _617
REMARK  237  A    between atoms: _617  and  _618
REMARK  238  A    between atoms: _617  and  _620
REMARK  239  A    between atoms: _620  and  _621
REMARK  240  A    between atoms: _624  and  _626
REMARK  241  A    between atoms: _626  and  _627
REMARK  242  A    between atoms: _626  and  _629
REMARK  243  A    between atoms: _629  and  _630
REMARK                            x       y       z     vdW  Elec       q    Type
REMARK                         _______ _______ _______ _____ _____    ______ ____
ROOT
ATOM      1  CA  VAL A   3      -9.083  45.890  15.752  0.00  0.00    +0.149 C 
ENDROOT
BRANCH   1   4
ATOM      2  C   LEU A   2      -7.977  48.096  15.413  0.00  0.00    +0.241 C 
ATOM      3  O   LEU A   2      -7.918  48.281  16.645  0.00  0.00    -0.273 OA
ATOM      4  N   VAL A   3      -8.468  46.948  14.928  0.00  0.00    -0.297 N 
ATOM      5  H   VAL A   3      -8.412  46.792  13.901  0.00  0.00    +0.150 HD
BRANCH   2   6
ATOM      6  CA  LEU A   2      -7.435  49.182  14.469  0.00  0.00    +0.149 C 
BRANCH   6   8
ATOM      7  C   GLN A   1      -9.471  50.572  14.541  0.00  0.00    +0.238 C 
ATOM      8  N   LEU A   2      -8.181  50.383  14.830  0.00  0.00    -0.297 N 
ATOM      9  H   LEU A   2      -7.679  51.136  15.342  0.00  0.00    +0.150 HD
ATOM     10  O   GLN A   1     -10.163  49.868  13.793  0.00  0.00    -0.274 OA
BRANCH   7  11
ATOM     11  CA  GLN A   1     -10.057  51.808  15.165  0.00  0.00    +0.145 C 
BRANCH  11  12
ATOM     12  N   GLN A   1     -10.611  52.694  14.148  0.00  0.00    -0.238 NA
ATOM     13  H   GLN A   1     -11.632  52.649  13.955  0.00  0.00    +0.142 HD
ENDBRANCH  11  12
BRANCH  11  14
ATOM     14  CB  GLN A   1     -11.114  51.361  16.121  0.00  0.00    +0.036 C 
BRANCH  14  15
ATOM     15  CG  GLN A   1     -11.827  52.530  16.763  0.00  0.00    +0.087 C 
BRANCH  15  16
ATOM     16  CD  GLN A   1     -12.964  52.141  17.657  0.00  0.00    +0.219 C 
ATOM     17  OE1 GLN A   1     -13.361  52.944  18.486  0.00  0.00    -0.275 OA
ATOM     18  NE2 GLN A   1     -13.599  50.993  17.589  0.00  0.00    -0.329 N 
ATOM     19 HE21 GLN A   1     -14.400  50.803  18.225  0.00  0.00    +0.145 HD
ATOM     20 HE22 GLN A   1     -13.301  50.274  16.900  0.00  0.00    +0.145 HD
ENDBRANCH  15  16
ENDBRANCH  14  15
ENDBRANCH  11  14
ENDBRANCH   7  11
ENDBRANCH   6   8
BRANCH   6  21
ATOM     21  CB  LEU A   2      -5.936  49.423  14.733  0.00  0.00    +0.029 C 
BRANCH  21  22
ATOM     22  CG  LEU A   2      -4.760  48.602  14.144  0.00  0.00    +0.002 C 
ATOM     23  CD2 LEU A   2      -3.887  48.306  15.316  0.00  0.00    +0.000 C 
ATOM     24  CD1 LEU A   2      -5.154  47.320  13.397  0.00  0.00    +0.000 C 
ENDBRANCH  21  22
ENDBRANCH   6  21
ENDBRANCH   2   6
ENDBRANCH   1   4
BRANCH   1  25
ATOM     25  C   VAL A   3      -9.793  46.309  17.037  0.00  0.00    +0.241 C 
ATOM     26  O   VAL A   3      -9.703  45.716  18.117  0.00  0.00    -0.273 OA
ATOM     27  N   GLY A   4     -10.572  47.385  16.881  0.00  0.00    -0.295 N 
ATOM     28  H   GLY A   4     -10.580  47.863  15.958  0.00  0.00    +0.150 HD
BRANCH  27  29
ATOM     29  CA  GLY A   4     -11.403  47.912  17.939  0.00  0.00    +0.176 C 
BRANCH  29  30
ATOM     30  C   GLY A   4     -10.663  48.657  19.029  0.00  0.00    +0.243 C 
ATOM     31  O   GLY A   4     -11.222  48.894  20.103  0.00  0.00    -0.273 OA
ATOM     32  N   LEU A   5      -9.479  49.127  18.790  0.00  0.00    -0.297 N 
ATOM     33  H   LEU A   5      -9.041  48.978  17.858  0.00  0.00    +0.150 HD
BRANCH  32  34
ATOM     34  CA  LEU A   5      -8.754  49.867  19.827  0.00  0.00    +0.149 C 
BRANCH  34  35
ATOM     35  C   LEU A   5      -9.133  51.330  19.762  0.00  0.00    +0.241 C 
ATOM     36  N   LEU A   6      -9.368  52.009  20.914  0.00  0.00    -0.298 N 
ATOM     37  H   LEU A   6      -9.239  51.512  21.818  0.00  0.00    +0.150 HD
ATOM     38  O   LEU A   5      -9.228  51.898  18.673  0.00  0.00    -0.273 OA
BRANCH  36  39
ATOM     39  CA  LEU A   6      -9.794  53.405  20.942  0.00  0.00    +0.137 C 
BRANCH  39  40
ATOM     40  C   LEU A   6      -8.768  54.294  20.266  0.00  0.00    +0.227 C 
ATOM     41  O   LEU A   6      -7.606  54.337  20.695  0.00  0.00    -0.286 OA
ENDBRANCH  39  40
BRANCH  39  42
ATOM     42  CB  LEU A   6     -10.036  53.810  22.399  0.00  0.00    +0.028 C 
BRANCH  42  43
ATOM     43  CG  LEU A   6     -11.283  53.133  22.962  0.00  0.00    +0.002 C 
ATOM     44  CD2 LEU A   6     -11.439  53.478  24.410  0.00  0.00    +0.000 C 
ATOM     45  CD1 LEU A   6     -12.531  53.587  22.180  0.00  0.00    +0.000 C 
ENDBRANCH  42  43
ENDBRANCH  39  42
ENDBRANCH  36  39
ENDBRANCH  34  35
BRANCH  34  46
ATOM     46  CB  LEU A   5      -7.255  49.716  19.604  0.00  0.00    +0.029 C 
BRANCH  46  47
ATOM     47  CG  LEU A   5      -6.782  48.310  19.947  0.00  0.00    +0.002 C 
ATOM     48  CD2 LEU A   5      -6.551  48.119  21.444  0.00  0.00    +0.000 C 
ATOM     49  CD1 LEU A   5      -5.470  47.927  19.267  0.00  0.00    +0.000 C 
ENDBRANCH  46  47
ENDBRANCH  34  46
ENDBRANCH  32  34
ENDBRANCH  29  30
ENDBRANCH  27  29
ENDBRANCH   1  25
BRANCH   1  50
ATOM     50  CB  VAL A   3      -8.065  44.760  16.108  0.00  0.00    +0.027 C 
ATOM     51  CG2 VAL A   3      -6.817  45.212  16.818  0.00  0.00    +0.002 C 
ATOM     52  CG1 VAL A   3      -7.777  44.070  14.782  0.00  0.00    +0.002 C 
ENDBRANCH   1  50
TORSDOF 22
REMARK  Name = ../refined-set-2016/1ppi/1ppi_pocket.pdb
REMARK  243 active torsions:
REMARK  status: ('A' for Active; 'I' for Inactive)
REMARK    1  A    between atoms: _1  and  _3
REMARK    2  A    between atoms: _3  and  _4
REMARK    3  A    between atoms: _3  and  _6
REMARK    4  A    between atoms: _6  and  _7
REMARK    5  A    between atoms: _12  and  _14
REMARK    6  A    between atoms: _14  and  _15
REMARK    7  A    between atoms: _14  and  _17
REMARK    8  A    between atoms: _17  and  _18
REMARK    9  A    between atoms: _24  and  _26
REMARK   10  A    between atoms: _26  and  _27
REMARK   11  A    between atoms: _26  and  _29
REMARK   12  A    between atoms: _29  and  _30
REMARK   13  A    between atoms: _30  and  _31
REMARK   14  A    between atoms: _37  and  _38
REMARK   15  A    between atoms: _43  and  _45
REMARK   16  A    between atoms: _45  and  _46
REMARK   17  A    between atoms: _45  and  _48
REMARK   18  A    between atoms: _48  and  _49
REMARK   19  A    between atoms: _54  and  _56
REMARK   20  A    between atoms: _56  and  _57
REMARK   21  A    between atoms: _56  and  _59
REMARK   22  A    between atoms: _62  and  _64
REMARK   23  A    between atoms: _64  and  _65
REMARK   24  A    between atoms: _64  and  _67
REMARK   25  A    between atoms: _71  and  _72
REMARK   26  A    between atoms: _78  and  _79
REMARK   27  A    between atoms: _84  and  _86
REMARK   28  A    between atoms: _86  and  _87
REMARK   29  A    between atoms: _86  and  _89
REMARK   30  A    between atoms: _89  and  _90
REMARK   31  A    between atoms: _100  and  _102
REMARK   32  A    between atoms: _102  and  _103
REMARK   33  A    between atoms: _102  and  _105
REMARK   34  A    between atoms: _105  and  _106
REMARK   35  A    between atoms: _116  and  _118
REMARK   36  A    between atoms: _118  and  _119
REMARK   37  A    between atoms: _118  and  _121
REMARK   38  A    between atoms: _121  and  _122
REMARK   39  A    between atoms: _122  and  _123
REMARK   40  A    between atoms: _126  and  _128
REMARK   41  A    between atoms: _128  and  _129
REMARK   42  A    between atoms: _128  and  _131
REMARK   43  A    between atoms: _131  and  _132
REMARK   44  A    between atoms: _132  and  _133
REMARK   45  A    between atoms: _133  and  _134
REMARK   46  A    between atoms: _143  and  _145
REMARK   47  A    between atoms: _145  and  _146
REMARK   48  A    between atoms: _145  and  _148
REMARK   49  A    between atoms: _148  and  _149
REMARK   50  A    between atoms: _154  and  _155
REMARK   51  A    between atoms: _157  and  _159
REMARK   52  A    between atoms: _159  and  _160
REMARK   53  A    between atoms: _159  and  _162
REMARK   54  A    between atoms: _162  and  _163
REMARK   55  A    between atoms: _163  and  _164
REMARK   56  A    between atoms: _170  and  _171
REMARK   57  A    between atoms: _176  and  _178
REMARK   58  A    between atoms: _178  and  _179
REMARK   59  A    between atoms: _178  and  _181
REMARK   60  A    between atoms: _181  and  _182
REMARK   61  A    between atoms: _185  and  _187
REMARK   62  A    between atoms: _187  and  _188
REMARK   63  A    between atoms: _191  and  _193
REMARK   64  A    between atoms: _193  and  _194
REMARK   65  A    between atoms: _193  and  _196
REMARK   66  A    between atoms: _199  and  _201
REMARK   67  A    between atoms: _201  and  _202
REMARK   68  A    between atoms: _201  and  _204
REMARK   69  A    between atoms: _204  and  _205
REMARK   70  A    between atoms: _208  and  _210
REMARK   71  A    between atoms: _210  and  _211
REMARK   72  A    between atoms: _210  and  _213
REMARK   73  A    between atoms: _213  and  _214
REMARK   74  A    between atoms: _219  and  _221
REMARK   75  A    between atoms: _221  and  _222
REMARK   76  A    between atoms: _221  and  _224
REMARK   77  A    between atoms: _224  and  _225
REMARK   78  A    between atoms: _230  and  _232
REMARK   79  A    between atoms: _232  and  _233
REMARK   80  A    between atoms: _232  and  _235
REMARK   81  A    between atoms: _235  and  _236
REMARK   82  A    between atoms: _236  and  _237
REMARK   83  A    between atoms: _239  and  _241
REMARK   84  A    between atoms: _241  and  _242
REMARK   85  A    between atoms: _241  and  _244
REMARK   86  A    between atoms: _246  and  _248
REMARK   87  A    between atoms: _248  and  _249
REMARK   88  A    between atoms: _251  and  _253
REMARK   89  A    between atoms: _253  and  _254
REMARK   90  A    between atoms: _253  and  _256
REMARK   91  A    between atoms: _256  and  _257
REMARK   92  A    between atoms: _259  and  _261
REMARK   93  A    between atoms: _261  and  _262
REMARK   94  A    between atoms: _264  and  _266
REMARK   95  A    between atoms: _266  and  _267
REMARK   96  A    between atoms: _270  and  _272
REMARK   97  A    between atoms: _272  and  _273
REMARK   98  A    between atoms: _272  and  _275
REMARK   99  A    between atoms: _275  and  _276
REMARK  100  A    between atoms: _279  and  _281
REMARK  101  A    between atoms: _281  and  _282
REMARK  102  A    between atoms: _281  and  _284
REMARK  103  A    between atoms: _284  and  _285
REMARK  104  A    between atoms: _290  and  _291
REMARK  105  A    between atoms: _293  and  _295
REMARK  106  A    between atoms: _295  and  _296
REMARK  107  A    between atoms: _295  and  _298
REMARK  108  A    between atoms: _301  and  _303
REMARK  109  A    between atoms: _303  and  _304
REMARK  110  A    between atoms: _303  and  _306
REMARK  111  A    between atoms: _306  and  _307
REMARK  112  A    between atoms: _307  and  _308
REMARK  113  A    between atoms: _313  and  _315
REMARK  114  A    between atoms: _315  and  _316
REMARK  115  A    between atoms: _315  and  _318
REMARK  116  A    between atoms: _318  and  _319
REMARK  117  A    between atoms: _322  and  _324
REMARK  118  A    between atoms: _324  and  _325
REMARK  119  A    between atoms: _324  and  _327
REMARK  120  A    between atoms: _330  and  _332
REMARK  121  A    between atoms: _332  and  _333
REMARK  122  A    between atoms: _335  and  _337
REMARK  123  A    between atoms: _337  and  _338
REMARK  124  A    between atoms: _337  and  _340
REMARK  125  A    between atoms: _340  and  _341
REMARK  126  A    between atoms: _344  and  _346
REMARK  127  A    between atoms: _346  and  _347
REMARK  128  A    between atoms: _346  and  _349
REMARK  129  A    between atoms: _349  and  _350
REMARK  130  A    between atoms: _353  and  _355
REMARK  131  A    between atoms: _355  and  _356
REMARK  132  A    between atoms: _355  and  _358
REMARK  133  A    between atoms: _358  and  _359
REMARK  134  A    between atoms: _359  and  _360
REMARK  135  A    between atoms: _360  and  _361
REMARK  136  A    between atoms: _370  and  _372
REMARK  137  A    between atoms: _372  and  _373
REMARK  138  A    between atoms: _372  and  _375
REMARK  139  A    between atoms: _375  and  _376
REMARK  140  A    between atoms: _379  and  _381
REMARK  141  A    between atoms: _381  and  _382
REMARK  142  A    between atoms: _381  and  _384
REMARK  143  A    between atoms: _384  and  _385
REMARK  144  A    between atoms: _388  and  _390
REMARK  145  A    between atoms: _390  and  _391
REMARK  146  A    between atoms: _394  and  _396
REMARK  147  A    between atoms: _396  and  _397
REMARK  148  A    between atoms: _396  and  _399
REMARK  149  A    between atoms: _399  and  _400
REMARK  150  A    between atoms: _402  and  _404
REMARK  151  A    between atoms: _404  and  _405
REMARK  152  A    between atoms: _404  and  _407
REMARK  153  A    between atoms: _407  and  _408
REMARK  154  A    between atoms: _408  and  _409
REMARK  155  A    between atoms: _409  and  _410
REMARK  156  A    between atoms: _410  and  _411
REMARK  157  A    between atoms: _415  and  _417
REMARK  158  A    between atoms: _417  and  _418
REMARK  159  A    between atoms: _417  and  _420
REMARK  160  A    between atoms: _420  and  _421
REMARK  161  A    between atoms: _426  and  _428
REMARK  162  A    between atoms: _428  and  _429
REMARK  163  A    between atoms: _428  and  _431
REMARK  164  A    between atoms: _431  and  _432
REMARK  165  A    between atoms: _432  and  _433
REMARK  166  A    between atoms: _436  and  _438
REMARK  167  A    between atoms: _438  and  _439
REMARK  168  A    between atoms: _438  and  _441
REMARK  169  A    between atoms: _444  and  _446
REMARK  170  A    between atoms: _446  and  _447
REMARK  171  A    between atoms: _446  and  _449
REMARK  172  A    between atoms: _449  and  _450
REMARK  173  A    between atoms: _453  and  _455
REMARK  174  A    between atoms: _455  and  _456
REMARK  175  A    between atoms: _455  and  _458
REMARK  176  A    between atoms: _458  and  _459
REMARK  177  A    between atoms: _462  and  _464
REMARK  178  A    between atoms: _464  and  _465
REMARK  179  A    between atoms: _464  and  _467
REMARK  180  A    between atoms: _467  and  _468
REMARK  181  A    between atoms: _471  and  _473
REMARK  182  A    between atoms: _473  and  _474
REMARK  183  A    between atoms: _476  and  _478
REMARK  184  A    between atoms: _478  and  _479
REMARK  185  A    between atoms: _478  and  _481
REMARK  186  A    between atoms: _481  and  _482
REMARK  187  A    between atoms: _482  and  _483
REMARK  188  A    between atoms: _486  and  _488
REMARK  189  A    between atoms: _488  and  _489
REMARK  190  A    between atoms: _488  and  _491
REMARK  191  A    between atoms: _491  and  _492
REMARK  192  A    between atoms: _495  and  _497
REMARK  193  A    between atoms: _497  and  _498
REMARK  194  A    between atoms: _497  and  _500
REMARK  195  A    between atoms: _500  and  _501
REMARK  196  A    between atoms: _507  and  _509
REMARK  197  A    between atoms: _509  and  _510
REMARK  198  A    between atoms: _509  and  _512
REMARK  199  A    between atoms: _512  and  _513
REMARK  200  A    between atoms: _518  and  _520
REMARK  201  A    between atoms: _520  and  _521
REMARK  202  A    between atoms: _520  and  _523
REMARK  203  A    between atoms: _523  and  _524
REMARK  204  A    between atoms: _529  and  _531
REMARK  205  A    between atoms: _531  and  _532
REMARK  206  A    between atoms: _531  and  _534
REMARK  207  A    between atoms: _534  and  _535
REMARK  208  A    between atoms: _538  and  _540
REMARK  209  A    between atoms: _540  and  _541
REMARK  210  A    between atoms: _540  and  _543
REMARK  211  A    between atoms: _543  and  _544
REMARK  212  A    between atoms: _549  and  _551
REMARK  213  A    between atoms: _551  and  _552
REMARK  214  A    between atoms: _551  and  _554
REMARK  215  A    between atoms: _554  and  _555
REMARK  216  A    between atoms: _555  and  _556
REMARK  217  A    between atoms: _556  and  _557
REMARK  218  A    between atoms: _566  and  _568
REMARK  219  A    between atoms: _568  and  _569
REMARK  220  A    between atoms: _571  and  _573
REMARK  221  A    between atoms: _573  and  _574
REMARK  222  A    between atoms: _573  and  _576
REMARK  223  A    between atoms: _576  and  _577
REMARK  224  A    between atoms: _582  and  _584
REMARK  225  A    between atoms: _584  and  _585
REMARK  226  A    between atoms: _587  and  _589
REMARK  227  A    between atoms: _589  and  _590
REMARK  228  A    between atoms: _593  and  _595
REMARK  229  A    between atoms: _595  and  _596
REMARK  230  A    between atoms: _598  and  _600
REMARK  231  A    between atoms: _600  and  _601
REMARK  232  A    between atoms: _600  and  _603
REMARK  233  A    between atoms: _603  and  _604
REMARK  234  A    between atoms: _604  and  _605
REMARK  235  A    between atoms: _605  and  _606
REMARK  236  A    between atoms: _615  and  _617
REMARK  237  A    between atoms: _617  and  _618
REMARK  238  A    between atoms: _617  and  _620
REMARK  239  A    between atoms: _620  and  _621
REMARK  240  A    between atoms: _624  and  _626
REMARK  241  A    between atoms: _626  and  _627
REMARK  242  A    between atoms: _626  and  _629
REMARK  243  A    between atoms: _629  and  _630
REMARK                            x       y       z     vdW  Elec       q    Type
REMARK                         _______ _______ _______ _____ _____    ______ ____
ROOT
ATOM      1  C   ASP A   3       2.826  51.648  16.493  0.00  0.00    +0.241 C 
ATOM      2  O   ASP A   3       2.281  52.739  16.682  0.00  0.00    -0.273 OA
ATOM      3  N   ALA A   4       2.500  50.791  15.536  0.00  0.00    -0.297 N 
ATOM      4  H   ALA A   4       3.053  49.913  15.465  0.00  0.00    +0.150 HD
ENDROOT
BRANCH   3   5
ATOM      5  CA  ALA A   4       1.432  50.991  14.586  0.00  0.00    +0.149 C 
ATOM      6  CB  ALA A   4       0.038  50.840  15.294  0.00  0.00    +0.031 C 
BRANCH   5   7
ATOM      7  C   ALA A   4       1.537  52.350  13.931  0.00  0.00    +0.241 C 
ATOM      8  O   ALA A   4       0.509  53.023  13.804  0.00  0.00    -0.273 OA
ATOM      9  N   SER A   5       2.737  52.717  13.430  0.00  0.00    -0.295 N 
ATOM     10  H   SER A   5       3.538  52.058  13.498  0.00  0.00    +0.150 HD
BRANCH   9  11
ATOM     11  CA  SER A   5       2.935  54.011  12.798  0.00  0.00    +0.178 C 
BRANCH  11  12
ATOM     12  C   SER A   5       2.071  54.236  11.578  0.00  0.00    +0.243 C 
ATOM     13  O   SER A   5       1.746  55.366  11.243  0.00  0.00    -0.273 OA
ATOM     14  N   LYS A   6       1.661  53.165  10.918  0.00  0.00    -0.297 N 
ATOM     15  H   LYS A   6       1.956  52.229  11.262  0.00  0.00    +0.150 HD
BRANCH  14  16
ATOM     16  CA  LYS A   6       0.827  53.233   9.747  0.00  0.00    +0.149 C 
BRANCH  16  17
ATOM     17  C   LYS A   6      -0.543  53.769  10.116  0.00  0.00    +0.241 C 
ATOM     18  N   HIS A   7      -0.981  53.627  11.370  0.00  0.00    -0.298 N 
ATOM     19  H   HIS A   7      -0.344  53.212  12.079  0.00  0.00    +0.150 HD
ATOM     20  O   LYS A   6      -1.285  54.278   9.292  0.00  0.00    -0.273 OA
BRANCH  18  21
ATOM     21  CA  HIS A   7      -2.322  54.033  11.781  0.00  0.00    +0.143 C 
BRANCH  21  22
ATOM     22  C   HIS A   7      -2.395  55.473  12.296  0.00  0.00    +0.227 C 
ATOM     23  O   HIS A   7      -3.411  55.884  12.924  0.00  0.00    -0.286 OA
ENDBRANCH  21  22
BRANCH  21  24
ATOM     24  CB  HIS A   7      -2.788  53.012  12.827  0.00  0.00    +0.075 C 
BRANCH  24  25
ATOM     25  CG  HIS A   7      -2.959  51.688  12.095  0.00  0.00    +0.082 A 
ATOM     26  CD2 HIS A   7      -2.045  50.676  12.042  0.00  0.00    +0.115 A 
ATOM     27  NE2 HIS A   7      -2.539  49.798  11.223  0.00  0.00    -0.221 NA
ATOM     28  CE1 HIS A   7      -3.702  50.191  10.770  0.00  0.00    +0.199 A 
ATOM     29  ND1 HIS A   7      -3.971  51.360  11.309  0.00  0.00    -0.227 NA
ENDBRANCH  24  25
ENDBRANCH  21  24
ENDBRANCH  18  21
ENDBRANCH  16  17
BRANCH  16  30
ATOM     30  CB  LYS A   6       0.733  51.838   9.216  0.00  0.00    +0.029 C 
BRANCH  30  31
ATOM     31  CG  LYS A   6      -0.032  51.634   7.896  0.00  0.00    +0.000 C 
BRANCH  31  32
ATOM     32  CD  LYS A   6      -0.272  50.164   7.832  0.00  0.00    -0.024 C 
BRANCH  32  33
ATOM     33  CE  LYS A   6      -0.126  49.788   6.410  0.00  0.00    -0.086 C 
BRANCH  33  34
ATOM     34  NZ  LYS A   6      -0.175  48.346   6.305  0.00  0.00    +0.380 N 
ATOM     35  HZ1 LYS A   6       0.600  47.933   6.862  0.00  0.00    -0.089 HD
ATOM     36  HZ2 LYS A   6      -1.087  48.004   6.670  0.00  0.00    -0.089 HD
ATOM     37  HZ3 LYS A   6      -0.073  48.069   5.308  0.00  0.00    -0.089 HD
ENDBRANCH  33  34
ENDBRANCH  32  33
ENDBRANCH  31  32
ENDBRANCH  30  31
ENDBRANCH  16  30
ENDBRANCH  14  16
ENDBRANCH  11  12
BRANCH  11  38
ATOM     38  CB  SER A   5       4.381  54.199  12.372  0.00  0.00    +0.166 C 
BRANCH  38  39
ATOM     39  OG  SER A   5       5.151  54.190  13.556  0.00  0.00    -0.380 OA
ATOM     40  H   SER A   5       5.028  53.325  14.022  0.00  0.00    +0.211 HD
ENDBRANCH  38  39
ENDBRANCH  11  38
ENDBRANCH   9  11
ENDBRANCH   5   7
ENDBRANCH   3   5
BRANCH   1  41
ATOM     41  CA  ASP A   3       3.902  51.093  17.401  0.00  0.00    +0.160 C 
BRANCH  41  43
ATOM     42  C   ILE A   2       5.736  52.561  16.817  0.00  0.00    +0.241 C 
ATOM     43  N   ASP A   3       4.875  52.101  17.720  0.00  0.00    -0.297 N 
ATOM     44  H   ASP A   3       4.907  52.483  18.687  0.00  0.00    +0.150 HD
ATOM     45  O   ILE A   2       5.692  52.167  15.636  0.00  0.00    -0.273 OA
BRANCH  42  46
ATOM     46  CA  ILE A   2       6.742  53.591  17.384  0.00  0.00    +0.148 C 
BRANCH  46  49
ATOM     47  C   ARG A   1       8.537  52.283  18.391  0.00  0.00    +0.238 C 
ATOM     48  O   ARG A   1       7.851  52.216  19.426  0.00  0.00    -0.274 OA
ATOM     49  N   ILE A   2       8.069  52.997  17.356  0.00  0.00    -0.297 N 
ATOM     50  H   ILE A   2       8.668  53.128  16.516  0.00  0.00    +0.150 HD
BRANCH  47  51
ATOM     51  CA  ARG A   1       9.897  51.580  18.366  0.00  0.00    +0.145 C 
BRANCH  51  52
ATOM     52  N   ARG A   1      10.588  52.267  19.429  0.00  0.00    -0.238 NA
ATOM     53  H   ARG A   1      10.572  51.875  20.392  0.00  0.00    +0.142 HD
ENDBRANCH  51  52
BRANCH  51  54
ATOM     54  CB  ARG A   1       9.695  50.071  18.657  0.00  0.00    +0.030 C 
BRANCH  54  55
ATOM     55  CG  ARG A   1       8.924  49.530  17.441  0.00  0.00    +0.045 C 
BRANCH  55  56
ATOM     56  CD  ARG A   1       8.492  48.084  17.341  0.00  0.00    +0.174 C 
BRANCH  56  57
ATOM     57  NE  ARG A   1       7.230  47.990  18.002  0.00  0.00    -0.265 N 
ATOM     58  HE  ARG A   1       7.157  48.404  18.953  0.00  0.00    +0.259 HD
ATOM     59  CZ  ARG A   1       6.132  47.412  17.498  0.00  0.00    +0.342 C 
ATOM     60  NH2 ARG A   1       5.089  47.454  18.278  0.00  0.00    -0.292 N 
ATOM     61 HH21 ARG A   1       5.154  47.912  19.210  0.00  0.00    +0.255 HD
ATOM     62 HH22 ARG A   1       4.191  47.030  17.969  0.00  0.00    +0.255 HD
ATOM     63  NH1 ARG A   1       6.015  46.797  16.332  0.00  0.00    -0.292 N 
ATOM     64 HH11 ARG A   1       5.102  46.385  16.051  0.00  0.00    +0.255 HD
ATOM     65 HH12 ARG A   1       6.836  46.726  15.697  0.00  0.00    +0.255 HD
ENDBRANCH  56  57
ENDBRANCH  55  56
ENDBRANCH  54  55
ENDBRANCH  51  54
ENDBRANCH  47  51
ENDBRANCH  46  49
BRANCH  46  66
ATOM     66  CB  ILE A   2       6.694  54.893  16.547  0.00  0.00    +0.027 C 
ATOM     67  CG2 ILE A   2       5.267  55.420  16.666  0.00  0.00    +0.002 C 
BRANCH  66  68
ATOM     68  CG1 ILE A   2       7.771  55.939  16.962  0.00  0.00    +0.002 C 
ATOM     69  CD1 ILE A   2       7.919  56.445  18.399  0.00  0.00    +0.000 C 
ENDBRANCH  66  68
ENDBRANCH  46  66
ENDBRANCH  42  46
ENDBRANCH  41  43
BRANCH  41  70
ATOM     70  CB  ASP A   3       3.275  50.558  18.687  0.00  0.00    +0.143 C 
BRANCH  70  71
ATOM     71  CG  ASP A   3       2.254  49.460  18.414  0.00  0.00    +0.367 C 
ATOM     72  OD2 ASP A   3       1.087  49.728  18.687  0.00  0.00    -0.246 OA
ATOM     73  OD1 ASP A   3       2.609  48.365  17.922  0.00  0.00    -0.246 OA
ENDBRANCH  70  71
ENDBRANCH  41  70
ENDBRANCH   1  41
TORSDOF 31
REMARK  Name = ../refined-set-2016/1ppi/1ppi_pocket.pdb
REMARK  243 active torsions:
REMARK  status: ('A' for Active; 'I' for Inactive)
REMARK    1  A    between atoms: _1  and  _3
REMARK    2  A    between atoms: _3  and  _4
REMARK    3  A    between atoms: _3  and  _6
REMARK    4  A    between atoms: _6  and  _7
REMARK    5  A    between atoms: _12  and  _14
REMARK    6  A    between atoms: _14  and  _15
REMARK    7  A    between atoms: _14  and  _17
REMARK    8  A    between atoms: _17  and  _18
REMARK    9  A    between atoms: _24  and  _26
REMARK   10  A    between atoms: _26  and  _27
REMARK   11  A    between atoms: _26  and  _29
REMARK   12  A    between atoms: _29  and  _30
REMARK   13  A    between atoms: _30  and  _31
REMARK   14  A    between atoms: _37  and  _38
REMARK   15  A    between atoms: _43  and  _45
REMARK   16  A    between atoms: _45  and  _46
REMARK   17  A    between atoms: _45  and  _48
REMARK   18  A    between atoms: _48  and  _49
REMARK   19  A    between atoms: _54  and  _56
REMARK   20  A    between atoms: _56  and  _57
REMARK   21  A    between atoms: _56  and  _59
REMARK   22  A    between atoms: _62  and  _64
REMARK   23  A    between atoms: _64  and  _65
REMARK   24  A    between atoms: _64  and  _67
REMARK   25  A    between atoms: _71  and  _72
REMARK   26  A    between atoms: _78  and  _79
REMARK   27  A    between atoms: _84  and  _86
REMARK   28  A    between atoms: _86  and  _87
REMARK   29  A    between atoms: _86  and  _89
REMARK   30  A    between atoms: _89  and  _90
REMARK   31  A    between atoms: _100  and  _102
REMARK   32  A    between atoms: _102  and  _103
REMARK   33  A    between atoms: _102  and  _105
REMARK   34  A    between atoms: _105  and  _106
REMARK   35  A    between atoms: _116  and  _118
REMARK   36  A    between atoms: _118  and  _119
REMARK   37  A    between atoms: _118  and  _121
REMARK   38  A    between atoms: _121  and  _122
REMARK   39  A    between atoms: _122  and  _123
REMARK   40  A    between atoms: _126  and  _128
REMARK   41  A    between atoms: _128  and  _129
REMARK   42  A    between atoms: _128  and  _131
REMARK   43  A    between atoms: _131  and  _132
REMARK   44  A    between atoms: _132  and  _133
REMARK   45  A    between atoms: _133  and  _134
REMARK   46  A    between atoms: _143  and  _145
REMARK   47  A    between atoms: _145  and  _146
REMARK   48  A    between atoms: _145  and  _148
REMARK   49  A    between atoms: _148  and  _149
REMARK   50  A    between atoms: _154  and  _155
REMARK   51  A    between atoms: _157  and  _159
REMARK   52  A    between atoms: _159  and  _160
REMARK   53  A    between atoms: _159  and  _162
REMARK   54  A    between atoms: _162  and  _163
REMARK   55  A    between atoms: _163  and  _164
REMARK   56  A    between atoms: _170  and  _171
REMARK   57  A    between atoms: _176  and  _178
REMARK   58  A    between atoms: _178  and  _179
REMARK   59  A    between atoms: _178  and  _181
REMARK   60  A    between atoms: _181  and  _182
REMARK   61  A    between atoms: _185  and  _187
REMARK   62  A    between atoms: _187  and  _188
REMARK   63  A    between atoms: _191  and  _193
REMARK   64  A    between atoms: _193  and  _194
REMARK   65  A    between atoms: _193  and  _196
REMARK   66  A    between atoms: _199  and  _201
REMARK   67  A    between atoms: _201  and  _202
REMARK   68  A    between atoms: _201  and  _204
REMARK   69  A    between atoms: _204  and  _205
REMARK   70  A    between atoms: _208  and  _210
REMARK   71  A    between atoms: _210  and  _211
REMARK   72  A    between atoms: _210  and  _213
REMARK   73  A    between atoms: _213  and  _214
REMARK   74  A    between atoms: _219  and  _221
REMARK   75  A    between atoms: _221  and  _222
REMARK   76  A    between atoms: _221  and  _224
REMARK   77  A    between atoms: _224  and  _225
REMARK   78  A    between atoms: _230  and  _232
REMARK   79  A    between atoms: _232  and  _233
REMARK   80  A    between atoms: _232  and  _235
REMARK   81  A    between atoms: _235  and  _236
REMARK   82  A    between atoms: _236  and  _237
REMARK   83  A    between atoms: _239  and  _241
REMARK   84  A    between atoms: _241  and  _242
REMARK   85  A    between atoms: _241  and  _244
REMARK   86  A    between atoms: _246  and  _248
REMARK   87  A    between atoms: _248  and  _249
REMARK   88  A    between atoms: _251  and  _253
REMARK   89  A    between atoms: _253  and  _254
REMARK   90  A    between atoms: _253  and  _256
REMARK   91  A    between atoms: _256  and  _257
REMARK   92  A    between atoms: _259  and  _261
REMARK   93  A    between atoms: _261  and  _262
REMARK   94  A    between atoms: _264  and  _266
REMARK   95  A    between atoms: _266  and  _267
REMARK   96  A    between atoms: _270  and  _272
REMARK   97  A    between atoms: _272  and  _273
REMARK   98  A    between atoms: _272  and  _275
REMARK   99  A    between atoms: _275  and  _276
REMARK  100  A    between atoms: _279  and  _281
REMARK  101  A    between atoms: _281  and  _282
REMARK  102  A    between atoms: _281  and  _284
REMARK  103  A    between atoms: _284  and  _285
REMARK  104  A    between atoms: _290  and  _291
REMARK  105  A    between atoms: _293  and  _295
REMARK  106  A    between atoms: _295  and  _296
REMARK  107  A    between atoms: _295  and  _298
REMARK  108  A    between atoms: _301  and  _303
REMARK  109  A    between atoms: _303  and  _304
REMARK  110  A    between atoms: _303  and  _306
REMARK  111  A    between atoms: _306  and  _307
REMARK  112  A    between atoms: _307  and  _308
REMARK  113  A    between atoms: _313  and  _315
REMARK  114  A    between atoms: _315  and  _316
REMARK  115  A    between atoms: _315  and  _318
REMARK  116  A    between atoms: _318  and  _319
REMARK  117  A    between atoms: _322  and  _324
REMARK  118  A    between atoms: _324  and  _325
REMARK  119  A    between atoms: _324  and  _327
REMARK  120  A    between atoms: _330  and  _332
REMARK  121  A    between atoms: _332  and  _333
REMARK  122  A    between atoms: _335  and  _337
REMARK  123  A    between atoms: _337  and  _338
REMARK  124  A    between atoms: _337  and  _340
REMARK  125  A    between atoms: _340  and  _341
REMARK  126  A    between atoms: _344  and  _346
REMARK  127  A    between atoms: _346  and  _347
REMARK  128  A    between atoms: _346  and  _349
REMARK  129  A    between atoms: _349  and  _350
REMARK  130  A    between atoms: _353  and  _355
REMARK  131  A    between atoms: _355  and  _356
REMARK  132  A    between atoms: _355  and  _358
REMARK  133  A    between atoms: _358  and  _359
REMARK  134  A    between atoms: _359  and  _360
REMARK  135  A    between atoms: _360  and  _361
REMARK  136  A    between atoms: _370  and  _372
REMARK  137  A    between atoms: _372  and  _373
REMARK  138  A    between atoms: _372  and  _375
REMARK  139  A    between atoms: _375  and  _376
REMARK  140  A    between atoms: _379  and  _381
REMARK  141  A    between atoms: _381  and  _382
REMARK  142  A    between atoms: _381  and  _384
REMARK  143  A    between atoms: _384  and  _385
REMARK  144  A    between atoms: _388  and  _390
REMARK  145  A    between atoms: _390  and  _391
REMARK  146  A    between atoms: _394  and  _396
REMARK  147  A    between atoms: _396  and  _397
REMARK  148  A    between atoms: _396  and  _399
REMARK  149  A    between atoms: _399  and  _400
REMARK  150  A    between atoms: _402  and  _404
REMARK  151  A    between atoms: _404  and  _405
REMARK  152  A    between atoms: _404  and  _407
REMARK  153  A    between atoms: _407  and  _408
REMARK  154  A    between atoms: _408  and  _409
REMARK  155  A    between atoms: _409  and  _410
REMARK  156  A    between atoms: _410  and  _411
REMARK  157  A    between atoms: _415  and  _417
REMARK  158  A    between atoms: _417  and  _418
REMARK  159  A    between atoms: _417  and  _420
REMARK  160  A    between atoms: _420  and  _421
REMARK  161  A    between atoms: _426  and  _428
REMARK  162  A    between atoms: _428  and  _429
REMARK  163  A    between atoms: _428  and  _431
REMARK  164  A    between atoms: _431  and  _432
REMARK  165  A    between atoms: _432  and  _433
REMARK  166  A    between atoms: _436  and  _438
REMARK  167  A    between atoms: _438  and  _439
REMARK  168  A    between atoms: _438  and  _441
REMARK  169  A    between atoms: _444  and  _446
REMARK  170  A    between atoms: _446  and  _447
REMARK  171  A    between atoms: _446  and  _449
REMARK  172  A    between atoms: _449  and  _450
REMARK  173  A    between atoms: _453  and  _455
REMARK  174  A    between atoms: _455  and  _456
REMARK  175  A    between atoms: _455  and  _458
REMARK  176  A    between atoms: _458  and  _459
REMARK  177  A    between atoms: _462  and  _464
REMARK  178  A    between atoms: _464  and  _465
REMARK  179  A    between atoms: _464  and  _467
REMARK  180  A    between atoms: _467  and  _468
REMARK  181  A    between atoms: _471  and  _473
REMARK  182  A    between atoms: _473  and  _474
REMARK  183  A    between atoms: _476  and  _478
REMARK  184  A    between atoms: _478  and  _479
REMARK  185  A    between atoms: _478  and  _481
REMARK  186  A    between atoms: _481  and  _482
REMARK  187  A    between atoms: _482  and  _483
REMARK  188  A    between atoms: _486  and  _488
REMARK  189  A    between atoms: _488  and  _489
REMARK  190  A    between atoms: _488  and  _491
REMARK  191  A    between atoms: _491  and  _492
REMARK  192  A    between atoms: _495  and  _497
REMARK  193  A    between atoms: _497  and  _498
REMARK  194  A    between atoms: _497  and  _500
REMARK  195  A    between atoms: _500  and  _501
REMARK  196  A    between atoms: _507  and  _509
REMARK  197  A    between atoms: _509  and  _510
REMARK  198  A    between atoms: _509  and  _512
REMARK  199  A    between atoms: _512  and  _513
REMARK  200  A    between atoms: _518  and  _520
REMARK  201  A    between atoms: _520  and  _521
REMARK  202  A    between atoms: _520  and  _523
REMARK  203  A    between atoms: _523  and  _524
REMARK  204  A    between atoms: _529  and  _531
REMARK  205  A    between atoms: _531  and  _532
REMARK  206  A    between atoms: _531  and  _534
REMARK  207  A    between atoms: _534  and  _535
REMARK  208  A    between atoms: _538  and  _540
REMARK  209  A    between atoms: _540  and  _541
REMARK  210  A    between atoms: _540  and  _543
REMARK  211  A    between atoms: _543  and  _544
REMARK  212  A    between atoms: _549  and  _551
REMARK  213  A    between atoms: _551  and  _552
REMARK  214  A    between atoms: _551  and  _554
REMARK  215  A    between atoms: _554  and  _555
REMARK  216  A    between atoms: _555  and  _556
REMARK  217  A    between atoms: _556  and  _557
REMARK  218  A    between atoms: _566  and  _568
REMARK  219  A    between atoms: _568  and  _569
REMARK  220  A    between atoms: _571  and  _573
REMARK  221  A    between atoms: _573  and  _574
REMARK  222  A    between atoms: _573  and  _576
REMARK  223  A    between atoms: _576  and  _577
REMARK  224  A    between atoms: _582  and  _584
REMARK  225  A    between atoms: _584  and  _585
REMARK  226  A    between atoms: _587  and  _589
REMARK  227  A    between atoms: _589  and  _590
REMARK  228  A    between atoms: _593  and  _595
REMARK  229  A    between atoms: _595  and  _596
REMARK  230  A    between atoms: _598  and  _600
REMARK  231  A    between atoms: _600  and  _601
REMARK  232  A    between atoms: _600  and  _603
REMARK  233  A    between atoms: _603  and  _604
REMARK  234  A    between atoms: _604  and  _605
REMARK  235  A    between atoms: _605  and  _606
REMARK  236  A    between atoms: _615  and  _617
REMARK  237  A    between atoms: _617  and  _618
REMARK  238  A    between atoms: _617  and  _620
REMARK  239  A    between atoms: _620  and  _621
REMARK  240  A    between atoms: _624  and  _626
REMARK  241  A    between atoms: _626  and  _627
REMARK  242  A    between atoms: _626  and  _629
REMARK  243  A    between atoms: _629  and  _630
REMARK                            x       y       z     vdW  Elec       q    Type
REMARK                         _______ _______ _______ _____ _____    ______ ____
ROOT
ATOM      1  CA  ILE A   3       3.853  47.010   7.269  0.00  0.00    +0.149 C 
ENDROOT
BRANCH   1   3
ATOM      2  C   VAL A   2       4.914  49.010   8.227  0.00  0.00    +0.241 C 
ATOM      3  N   ILE A   3       3.859  48.204   8.117  0.00  0.00    -0.297 N 
ATOM      4  H   ILE A   3       3.001  48.433   8.658  0.00  0.00    +0.150 HD
ATOM      5  O   VAL A   2       5.961  48.703   7.649  0.00  0.00    -0.273 OA
BRANCH   2   6
ATOM      6  CA  VAL A   2       4.820  50.289   9.111  0.00  0.00    +0.148 C 
BRANCH   6   9
ATOM      7  C   GLU A   1       5.412  50.366  11.483  0.00  0.00    +0.238 C 
ATOM      8  O   GLU A   1       4.328  50.893  11.783  0.00  0.00    -0.274 OA
ATOM      9  N   VAL A   2       5.755  50.138  10.215  0.00  0.00    -0.297 N 
ATOM     10  H   VAL A   2       6.730  49.840  10.007  0.00  0.00    +0.150 HD
BRANCH   7  11
ATOM     11  CA  GLU A   1       6.429  50.025  12.582  0.00  0.00    +0.145 C 
BRANCH  11  12
ATOM     12  N   GLU A   1       6.996  51.260  13.058  0.00  0.00    -0.238 NA
ATOM     13  H   GLU A   1       6.600  51.714  13.906  0.00  0.00    +0.142 HD
ENDBRANCH  11  12
BRANCH  11  14
ATOM     14  CB  GLU A   1       5.693  49.252  13.697  0.00  0.00    +0.038 C 
BRANCH  14  15
ATOM     15  CG  GLU A   1       5.216  47.890  13.135  0.00  0.00    +0.116 C 
BRANCH  15  16
ATOM     16  CD  GLU A   1       3.818  47.438  13.494  0.00  0.00    +0.365 C 
ATOM     17  OE2 GLU A   1       3.015  48.248  13.953  0.00  0.00    -0.246 OA
ATOM     18  OE1 GLU A   1       3.517  46.251  13.321  0.00  0.00    -0.246 OA
ENDBRANCH  15  16
ENDBRANCH  14  15
ENDBRANCH  11  14
ENDBRANCH   7  11
ENDBRANCH   6   9
BRANCH   6  19
ATOM     19  CB  VAL A   2       5.170  51.557   8.269  0.00  0.00    +0.027 C 
ATOM     20  CG2 VAL A   2       5.136  52.820   9.152  0.00  0.00    +0.002 C 
ATOM     21  CG1 VAL A   2       4.155  51.712   7.141  0.00  0.00    +0.002 C 
ENDBRANCH   6  19
ENDBRANCH   2   6
ENDBRANCH   1   3
BRANCH   1  22
ATOM     22  C   ILE A   3       3.448  47.429   5.859  0.00  0.00    +0.241 C 
ATOM     23  O   ILE A   3       2.323  47.836   5.588  0.00  0.00    -0.273 OA
ATOM     24  N   ASP A   4       4.426  47.411   4.975  0.00  0.00    -0.297 N 
ATOM     25  H   ASP A   4       5.380  47.134   5.284  0.00  0.00    +0.150 HD
BRANCH  24  26
ATOM     26  CA  ASP A   4       4.214  47.763   3.595  0.00  0.00    +0.160 C 
BRANCH  26  27
ATOM     27  C   ASP A   4       4.934  46.752   2.716  0.00  0.00    +0.241 C 
ATOM     28  N   LEU A   5       4.177  45.749   2.367  0.00  0.00    -0.297 N 
ATOM     29  H   LEU A   5       3.209  45.681   2.741  0.00  0.00    +0.150 HD
ATOM     30  O   ASP A   4       6.109  46.850   2.357  0.00  0.00    -0.273 OA
BRANCH  28  31
ATOM     31  CA  LEU A   5       4.670  44.730   1.465  0.00  0.00    +0.149 C 
BRANCH  31  32
ATOM     32  C   LEU A   5       4.359  45.113   0.022  0.00  0.00    +0.241 C 
ATOM     33  N   GLY A   6       3.610  46.224  -0.153  0.00  0.00    -0.296 N 
ATOM     34  H   GLY A   6       3.365  46.775   0.694  0.00  0.00    +0.150 HD
ATOM     35  O   LEU A   5       4.799  44.421  -0.899  0.00  0.00    -0.273 OA
BRANCH  33  36
ATOM     36  CA  GLY A   6       3.121  46.709  -1.429  0.00  0.00    +0.163 C 
BRANCH  36  37
ATOM     37  C   GLY A   6       1.608  46.439  -1.510  0.00  0.00    +0.229 C 
ATOM     38  O   GLY A   6       0.974  45.870  -0.604  0.00  0.00    -0.286 OA
ENDBRANCH  36  37
ENDBRANCH  33  36
ENDBRANCH  31  32
BRANCH  31  39
ATOM     39  CB  LEU A   5       4.023  43.388   1.791  0.00  0.00    +0.029 C 
BRANCH  39  40
ATOM     40  CG  LEU A   5       4.619  42.458   2.866  0.00  0.00    +0.002 C 
ATOM     41  CD2 LEU A   5       4.354  43.000   4.219  0.00  0.00    +0.000 C 
ATOM     42  CD1 LEU A   5       6.120  42.392   2.743  0.00  0.00    +0.000 C 
ENDBRANCH  39  40
ENDBRANCH  31  39
ENDBRANCH  28  31
ENDBRANCH  26  27
BRANCH  26  43
ATOM     43  CB  ASP A   4       4.723  49.198   3.345  0.00  0.00    +0.143 C 
BRANCH  43  44
ATOM     44  CG  ASP A   4       4.737  49.589   1.871  0.00  0.00    +0.367 C 
ATOM     45  OD2 ASP A   4       5.448  50.512   1.514  0.00  0.00    -0.246 OA
ATOM     46  OD1 ASP A   4       4.080  48.973   1.044  0.00  0.00    -0.246 OA
ENDBRANCH  43  44
ENDBRANCH  26  43
ENDBRANCH  24  26
ENDBRANCH   1  22
BRANCH   1  47
ATOM     47  CB  ILE A   3       2.867  45.935   7.792  0.00  0.00    +0.027 C 
ATOM     48  CG2 ILE A   3       2.818  44.736   6.852  0.00  0.00    +0.002 C 
BRANCH  47  49
ATOM     49  CG1 ILE A   3       3.308  45.511   9.193  0.00  0.00    +0.002 C 
ATOM     50  CD1 ILE A   3       2.367  44.535   9.953  0.00  0.00    +0.000 C 
ENDBRANCH  47  49
ENDBRANCH   1  47
TORSDOF 22
REMARK  Name = ../refined-set-2016/1ppi/1ppi_pocket.pdb
REMARK  243 active torsions:
REMARK  status: ('A' for Active; 'I' for Inactive)
REMARK    1  A    between atoms: _1  and  _3
REMARK    2  A    between atoms: _3  and  _4
REMARK    3  A    between atoms: _3  and  _6
REMARK    4  A    between atoms: _6  and  _7
REMARK    5  A    between atoms: _12  and  _14
REMARK    6  A    between atoms: _14  and  _15
REMARK    7  A    between atoms: _14  and  _17
REMARK    8  A    between atoms: _17  and  _18
REMARK    9  A    between atoms: _24  and  _26
REMARK   10  A    between atoms: _26  and  _27
REMARK   11  A    between atoms: _26  and  _29
REMARK   12  A    between atoms: _29  and  _30
REMARK   13  A    between atoms: _30  and  _31
REMARK   14  A    between atoms: _37  and  _38
REMARK   15  A    between atoms: _43  and  _45
REMARK   16  A    between atoms: _45  and  _46
REMARK   17  A    between atoms: _45  and  _48
REMARK   18  A    between atoms: _48  and  _49
REMARK   19  A    between atoms: _54  and  _56
REMARK   20  A    between atoms: _56  and  _57
REMARK   21  A    between atoms: _56  and  _59
REMARK   22  A    between atoms: _62  and  _64
REMARK   23  A    between atoms: _64  and  _65
REMARK   24  A    between atoms: _64  and  _67
REMARK   25  A    between atoms: _71  and  _72
REMARK   26  A    between atoms: _78  and  _79
REMARK   27  A    between atoms: _84  and  _86
REMARK   28  A    between atoms: _86  and  _87
REMARK   29  A    between atoms: _86  and  _89
REMARK   30  A    between atoms: _89  and  _90
REMARK   31  A    between atoms: _100  and  _102
REMARK   32  A    between atoms: _102  and  _103
REMARK   33  A    between atoms: _102  and  _105
REMARK   34  A    between atoms: _105  and  _106
REMARK   35  A    between atoms: _116  and  _118
REMARK   36  A    between atoms: _118  and  _119
REMARK   37  A    between atoms: _118  and  _121
REMARK   38  A    between atoms: _121  and  _122
REMARK   39  A    between atoms: _122  and  _123
REMARK   40  A    between atoms: _126  and  _128
REMARK   41  A    between atoms: _128  and  _129
REMARK   42  A    between atoms: _128  and  _131
REMARK   43  A    between atoms: _131  and  _132
REMARK   44  A    between atoms: _132  and  _133
REMARK   45  A    between atoms: _133  and  _134
REMARK   46  A    between atoms: _143  and  _145
REMARK   47  A    between atoms: _145  and  _146
REMARK   48  A    between atoms: _145  and  _148
REMARK   49  A    between atoms: _148  and  _149
REMARK   50  A    between atoms: _154  and  _155
REMARK   51  A    between atoms: _157  and  _159
REMARK   52  A    between atoms: _159  and  _160
REMARK   53  A    between atoms: _159  and  _162
REMARK   54  A    between atoms: _162  and  _163
REMARK   55  A    between atoms: _163  and  _164
REMARK   56  A    between atoms: _170  and  _171
REMARK   57  A    between atoms: _176  and  _178
REMARK   58  A    between atoms: _178  and  _179
REMARK   59  A    between atoms: _178  and  _181
REMARK   60  A    between atoms: _181  and  _182
REMARK   61  A    between atoms: _185  and  _187
REMARK   62  A    between atoms: _187  and  _188
REMARK   63  A    between atoms: _191  and  _193
REMARK   64  A    between atoms: _193  and  _194
REMARK   65  A    between atoms: _193  and  _196
REMARK   66  A    between atoms: _199  and  _201
REMARK   67  A    between atoms: _201  and  _202
REMARK   68  A    between atoms: _201  and  _204
REMARK   69  A    between atoms: _204  and  _205
REMARK   70  A    between atoms: _208  and  _210
REMARK   71  A    between atoms: _210  and  _211
REMARK   72  A    between atoms: _210  and  _213
REMARK   73  A    between atoms: _213  and  _214
REMARK   74  A    between atoms: _219  and  _221
REMARK   75  A    between atoms: _221  and  _222
REMARK   76  A    between atoms: _221  and  _224
REMARK   77  A    between atoms: _224  and  _225
REMARK   78  A    between atoms: _230  and  _232
REMARK   79  A    between atoms: _232  and  _233
REMARK   80  A    between atoms: _232  and  _235
REMARK   81  A    between atoms: _235  and  _236
REMARK   82  A    between atoms: _236  and  _237
REMARK   83  A    between atoms: _239  and  _241
REMARK   84  A    between atoms: _241  and  _242
REMARK   85  A    between atoms: _241  and  _244
REMARK   86  A    between atoms: _246  and  _248
REMARK   87  A    between atoms: _248  and  _249
REMARK   88  A    between atoms: _251  and  _253
REMARK   89  A    between atoms: _253  and  _254
REMARK   90  A    between atoms: _253  and  _256
REMARK   91  A    between atoms: _256  and  _257
REMARK   92  A    between atoms: _259  and  _261
REMARK   93  A    between atoms: _261  and  _262
REMARK   94  A    between atoms: _264  and  _266
REMARK   95  A    between atoms: _266  and  _267
REMARK   96  A    between atoms: _270  and  _272
REMARK   97  A    between atoms: _272  and  _273
REMARK   98  A    between atoms: _272  and  _275
REMARK   99  A    between atoms: _275  and  _276
REMARK  100  A    between atoms: _279  and  _281
REMARK  101  A    between atoms: _281  and  _282
REMARK  102  A    between atoms: _281  and  _284
REMARK  103  A    between atoms: _284  and  _285
REMARK  104  A    between atoms: _290  and  _291
REMARK  105  A    between atoms: _293  and  _295
REMARK  106  A    between atoms: _295  and  _296
REMARK  107  A    between atoms: _295  and  _298
REMARK  108  A    between atoms: _301  and  _303
REMARK  109  A    between atoms: _303  and  _304
REMARK  110  A    between atoms: _303  and  _306
REMARK  111  A    between atoms: _306  and  _307
REMARK  112  A    between atoms: _307  and  _308
REMARK  113  A    between atoms: _313  and  _315
REMARK  114  A    between atoms: _315  and  _316
REMARK  115  A    between atoms: _315  and  _318
REMARK  116  A    between atoms: _318  and  _319
REMARK  117  A    between atoms: _322  and  _324
REMARK  118  A    between atoms: _324  and  _325
REMARK  119  A    between atoms: _324  and  _327
REMARK  120  A    between atoms: _330  and  _332
REMARK  121  A    between atoms: _332  and  _333
REMARK  122  A    between atoms: _335  and  _337
REMARK  123  A    between atoms: _337  and  _338
REMARK  124  A    between atoms: _337  and  _340
REMARK  125  A    between atoms: _340  and  _341
REMARK  126  A    between atoms: _344  and  _346
REMARK  127  A    between atoms: _346  and  _347
REMARK  128  A    between atoms: _346  and  _349
REMARK  129  A    between atoms: _349  and  _350
REMARK  130  A    between atoms: _353  and  _355
REMARK  131  A    between atoms: _355  and  _356
REMARK  132  A    between atoms: _355  and  _358
REMARK  133  A    between atoms: _358  and  _359
REMARK  134  A    between atoms: _359  and  _360
REMARK  135  A    between atoms: _360  and  _361
REMARK  136  A    between atoms: _370  and  _372
REMARK  137  A    between atoms: _372  and  _373
REMARK  138  A    between atoms: _372  and  _375
REMARK  139  A    between atoms: _375  and  _376
REMARK  140  A    between atoms: _379  and  _381
REMARK  141  A    between atoms: _381  and  _382
REMARK  142  A    between atoms: _381  and  _384
REMARK  143  A    between atoms: _384  and  _385
REMARK  144  A    between atoms: _388  and  _390
REMARK  145  A    between atoms: _390  and  _391
REMARK  146  A    between atoms: _394  and  _396
REMARK  147  A    between atoms: _396  and  _397
REMARK  148  A    between atoms: _396  and  _399
REMARK  149  A    between atoms: _399  and  _400
REMARK  150  A    between atoms: _402  and  _404
REMARK  151  A    between atoms: _404  and  _405
REMARK  152  A    between atoms: _404  and  _407
REMARK  153  A    between atoms: _407  and  _408
REMARK  154  A    between atoms: _408  and  _409
REMARK  155  A    between atoms: _409  and  _410
REMARK  156  A    between atoms: _410  and  _411
REMARK  157  A    between atoms: _415  and  _417
REMARK  158  A    between atoms: _417  and  _418
REMARK  159  A    between atoms: _417  and  _420
REMARK  160  A    between atoms: _420  and  _421
REMARK  161  A    between atoms: _426  and  _428
REMARK  162  A    between atoms: _428  and  _429
REMARK  163  A    between atoms: _428  and  _431
REMARK  164  A    between atoms: _431  and  _432
REMARK  165  A    between atoms: _432  and  _433
REMARK  166  A    between atoms: _436  and  _438
REMARK  167  A    between atoms: _438  and  _439
REMARK  168  A    between atoms: _438  and  _441
REMARK  169  A    between atoms: _444  and  _446
REMARK  170  A    between atoms: _446  and  _447
REMARK  171  A    between atoms: _446  and  _449
REMARK  172  A    between atoms: _449  and  _450
REMARK  173  A    between atoms: _453  and  _455
REMARK  174  A    between atoms: _455  and  _456
REMARK  175  A    between atoms: _455  and  _458
REMARK  176  A    between atoms: _458  and  _459
REMARK  177  A    between atoms: _462  and  _464
REMARK  178  A    between atoms: _464  and  _465
REMARK  179  A    between atoms: _464  and  _467
REMARK  180  A    between atoms: _467  and  _468
REMARK  181  A    between atoms: _471  and  _473
REMARK  182  A    between atoms: _473  and  _474
REMARK  183  A    between atoms: _476  and  _478
REMARK  184  A    between atoms: _478  and  _479
REMARK  185  A    between atoms: _478  and  _481
REMARK  186  A    between atoms: _481  and  _482
REMARK  187  A    between atoms: _482  and  _483
REMARK  188  A    between atoms: _486  and  _488
REMARK  189  A    between atoms: _488  and  _489
REMARK  190  A    between atoms: _488  and  _491
REMARK  191  A    between atoms: _491  and  _492
REMARK  192  A    between atoms: _495  and  _497
REMARK  193  A    between atoms: _497  and  _498
REMARK  194  A    between atoms: _497  and  _500
REMARK  195  A    between atoms: _500  and  _501
REMARK  196  A    between atoms: _507  and  _509
REMARK  197  A    between atoms: _509  and  _510
REMARK  198  A    between atoms: _509  and  _512
REMARK  199  A    between atoms: _512  and  _513
REMARK  200  A    between atoms: _518  and  _520
REMARK  201  A    between atoms: _520  and  _521
REMARK  202  A    between atoms: _520  and  _523
REMARK  203  A    between atoms: _523  and  _524
REMARK  204  A    between atoms: _529  and  _531
REMARK  205  A    between atoms: _531  and  _532
REMARK  206  A    between atoms: _531  and  _534
REMARK  207  A    between atoms: _534  and  _535
REMARK  208  A    between atoms: _538  and  _540
REMARK  209  A    between atoms: _540  and  _541
REMARK  210  A    between atoms: _540  and  _543
REMARK  211  A    between atoms: _543  and  _544
REMARK  212  A    between atoms: _549  and  _551
REMARK  213  A    between atoms: _551  and  _552
REMARK  214  A    between atoms: _551  and  _554
REMARK  215  A    between atoms: _554  and  _555
REMARK  216  A    between atoms: _555  and  _556
REMARK  217  A    between atoms: _556  and  _557
REMARK  218  A    between atoms: _566  and  _568
REMARK  219  A    between atoms: _568  and  _569
REMARK  220  A    between atoms: _571  and  _573
REMARK  221  A    between atoms: _573  and  _574
REMARK  222  A    between atoms: _573  and  _576
REMARK  223  A    between atoms: _576  and  _577
REMARK  224  A    between atoms: _582  and  _584
REMARK  225  A    between atoms: _584  and  _585
REMARK  226  A    between atoms: _587  and  _589
REMARK  227  A    between atoms: _589  and  _590
REMARK  228  A    between atoms: _593  and  _595
REMARK  229  A    between atoms: _595  and  _596
REMARK  230  A    between atoms: _598  and  _600
REMARK  231  A    between atoms: _600  and  _601
REMARK  232  A    between atoms: _600  and  _603
REMARK  233  A    between atoms: _603  and  _604
REMARK  234  A    between atoms: _604  and  _605
REMARK  235  A    between atoms: _605  and  _606
REMARK  236  A    between atoms: _615  and  _617
REMARK  237  A    between atoms: _617  and  _618
REMARK  238  A    between atoms: _617  and  _620
REMARK  239  A    between atoms: _620  and  _621
REMARK  240  A    between atoms: _624  and  _626
REMARK  241  A    between atoms: _626  and  _627
REMARK  242  A    between atoms: _626  and  _629
REMARK  243  A    between atoms: _629  and  _630
REMARK                            x       y       z     vdW  Elec       q    Type
REMARK                         _______ _______ _______ _____ _____    ______ ____
ROOT
ATOM      1  CA  GLU A   1      -1.973  49.219  -0.493  0.00  0.00    +0.134 C 
ENDROOT
BRANCH   1   2
ATOM      2  N   GLU A   1      -1.037  48.463  -1.287  0.00  0.00    -0.239 NA
ATOM      3  H   GLU A   1      -0.031  48.724  -1.266  0.00  0.00    +0.142 HD
ENDBRANCH   1   2
BRANCH   1   4
ATOM      4  C   GLU A   1      -1.649  50.675  -0.726  0.00  0.00    +0.224 C 
ATOM      5  O   GLU A   1      -0.601  51.009  -1.290  0.00  0.00    -0.287 OA
ENDBRANCH   1   4
BRANCH   1   6
ATOM      6  CB  GLU A   1      -1.813  48.939   0.980  0.00  0.00    +0.037 C 
BRANCH   6   7
ATOM      7  CG  GLU A   1      -2.309  47.605   1.457  0.00  0.00    +0.116 C 
BRANCH   7   8
ATOM      8  CD  GLU A   1      -2.019  47.323   2.932  0.00  0.00    +0.365 C 
ATOM      9  OE2 GLU A   1      -1.501  48.197   3.640  0.00  0.00    -0.246 OA
ATOM     10  OE1 GLU A   1      -2.333  46.217   3.371  0.00  0.00    -0.246 OA
ENDBRANCH   7   8
ENDBRANCH   6   7
ENDBRANCH   1   6
TORSDOF 5
REMARK  Name = ../refined-set-2016/1ppi/1ppi_pocket.pdb
REMARK  243 active torsions:
REMARK  status: ('A' for Active; 'I' for Inactive)
REMARK    1  A    between atoms: _1  and  _3
REMARK    2  A    between atoms: _3  and  _4
REMARK    3  A    between atoms: _3  and  _6
REMARK    4  A    between atoms: _6  and  _7
REMARK    5  A    between atoms: _12  and  _14
REMARK    6  A    between atoms: _14  and  _15
REMARK    7  A    between atoms: _14  and  _17
REMARK    8  A    between atoms: _17  and  _18
REMARK    9  A    between atoms: _24  and  _26
REMARK   10  A    between atoms: _26  and  _27
REMARK   11  A    between atoms: _26  and  _29
REMARK   12  A    between atoms: _29  and  _30
REMARK   13  A    between atoms: _30  and  _31
REMARK   14  A    between atoms: _37  and  _38
REMARK   15  A    between atoms: _43  and  _45
REMARK   16  A    between atoms: _45  and  _46
REMARK   17  A    between atoms: _45  and  _48
REMARK   18  A    between atoms: _48  and  _49
REMARK   19  A    between atoms: _54  and  _56
REMARK   20  A    between atoms: _56  and  _57
REMARK   21  A    between atoms: _56  and  _59
REMARK   22  A    between atoms: _62  and  _64
REMARK   23  A    between atoms: _64  and  _65
REMARK   24  A    between atoms: _64  and  _67
REMARK   25  A    between atoms: _71  and  _72
REMARK   26  A    between atoms: _78  and  _79
REMARK   27  A    between atoms: _84  and  _86
REMARK   28  A    between atoms: _86  and  _87
REMARK   29  A    between atoms: _86  and  _89
REMARK   30  A    between atoms: _89  and  _90
REMARK   31  A    between atoms: _100  and  _102
REMARK   32  A    between atoms: _102  and  _103
REMARK   33  A    between atoms: _102  and  _105
REMARK   34  A    between atoms: _105  and  _106
REMARK   35  A    between atoms: _116  and  _118
REMARK   36  A    between atoms: _118  and  _119
REMARK   37  A    between atoms: _118  and  _121
REMARK   38  A    between atoms: _121  and  _122
REMARK   39  A    between atoms: _122  and  _123
REMARK   40  A    between atoms: _126  and  _128
REMARK   41  A    between atoms: _128  and  _129
REMARK   42  A    between atoms: _128  and  _131
REMARK   43  A    between atoms: _131  and  _132
REMARK   44  A    between atoms: _132  and  _133
REMARK   45  A    between atoms: _133  and  _134
REMARK   46  A    between atoms: _143  and  _145
REMARK   47  A    between atoms: _145  and  _146
REMARK   48  A    between atoms: _145  and  _148
REMARK   49  A    between atoms: _148  and  _149
REMARK   50  A    between atoms: _154  and  _155
REMARK   51  A    between atoms: _157  and  _159
REMARK   52  A    between atoms: _159  and  _160
REMARK   53  A    between atoms: _159  and  _162
REMARK   54  A    between atoms: _162  and  _163
REMARK   55  A    between atoms: _163  and  _164
REMARK   56  A    between atoms: _170  and  _171
REMARK   57  A    between atoms: _176  and  _178
REMARK   58  A    between atoms: _178  and  _179
REMARK   59  A    between atoms: _178  and  _181
REMARK   60  A    between atoms: _181  and  _182
REMARK   61  A    between atoms: _185  and  _187
REMARK   62  A    between atoms: _187  and  _188
REMARK   63  A    between atoms: _191  and  _193
REMARK   64  A    between atoms: _193  and  _194
REMARK   65  A    between atoms: _193  and  _196
REMARK   66  A    between atoms: _199  and  _201
REMARK   67  A    between atoms: _201  and  _202
REMARK   68  A    between atoms: _201  and  _204
REMARK   69  A    between atoms: _204  and  _205
REMARK   70  A    between atoms: _208  and  _210
REMARK   71  A    between atoms: _210  and  _211
REMARK   72  A    between atoms: _210  and  _213
REMARK   73  A    between atoms: _213  and  _214
REMARK   74  A    between atoms: _219  and  _221
REMARK   75  A    between atoms: _221  and  _222
REMARK   76  A    between atoms: _221  and  _224
REMARK   77  A    between atoms: _224  and  _225
REMARK   78  A    between atoms: _230  and  _232
REMARK   79  A    between atoms: _232  and  _233
REMARK   80  A    between atoms: _232  and  _235
REMARK   81  A    between atoms: _235  and  _236
REMARK   82  A    between atoms: _236  and  _237
REMARK   83  A    between atoms: _239  and  _241
REMARK   84  A    between atoms: _241  and  _242
REMARK   85  A    between atoms: _241  and  _244
REMARK   86  A    between atoms: _246  and  _248
REMARK   87  A    between atoms: _248  and  _249
REMARK   88  A    between atoms: _251  and  _253
REMARK   89  A    between atoms: _253  and  _254
REMARK   90  A    between atoms: _253  and  _256
REMARK   91  A    between atoms: _256  and  _257
REMARK   92  A    between atoms: _259  and  _261
REMARK   93  A    between atoms: _261  and  _262
REMARK   94  A    between atoms: _264  and  _266
REMARK   95  A    between atoms: _266  and  _267
REMARK   96  A    between atoms: _270  and  _272
REMARK   97  A    between atoms: _272  and  _273
REMARK   98  A    between atoms: _272  and  _275
REMARK   99  A    between atoms: _275  and  _276
REMARK  100  A    between atoms: _279  and  _281
REMARK  101  A    between atoms: _281  and  _282
REMARK  102  A    between atoms: _281  and  _284
REMARK  103  A    between atoms: _284  and  _285
REMARK  104  A    between atoms: _290  and  _291
REMARK  105  A    between atoms: _293  and  _295
REMARK  106  A    between atoms: _295  and  _296
REMARK  107  A    between atoms: _295  and  _298
REMARK  108  A    between atoms: _301  and  _303
REMARK  109  A    between atoms: _303  and  _304
REMARK  110  A    between atoms: _303  and  _306
REMARK  111  A    between atoms: _306  and  _307
REMARK  112  A    between atoms: _307  and  _308
REMARK  113  A    between atoms: _313  and  _315
REMARK  114  A    between atoms: _315  and  _316
REMARK  115  A    between atoms: _315  and  _318
REMARK  116  A    between atoms: _318  and  _319
REMARK  117  A    between atoms: _322  and  _324
REMARK  118  A    between atoms: _324  and  _325
REMARK  119  A    between atoms: _324  and  _327
REMARK  120  A    between atoms: _330  and  _332
REMARK  121  A    between atoms: _332  and  _333
REMARK  122  A    between atoms: _335  and  _337
REMARK  123  A    between atoms: _337  and  _338
REMARK  124  A    between atoms: _337  and  _340
REMARK  125  A    between atoms: _340  and  _341
REMARK  126  A    between atoms: _344  and  _346
REMARK  127  A    between atoms: _346  and  _347
REMARK  128  A    between atoms: _346  and  _349
REMARK  129  A    between atoms: _349  and  _350
REMARK  130  A    between atoms: _353  and  _355
REMARK  131  A    between atoms: _355  and  _356
REMARK  132  A    between atoms: _355  and  _358
REMARK  133  A    between atoms: _358  and  _359
REMARK  134  A    between atoms: _359  and  _360
REMARK  135  A    between atoms: _360  and  _361
REMARK  136  A    between atoms: _370  and  _372
REMARK  137  A    between atoms: _372  and  _373
REMARK  138  A    between atoms: _372  and  _375
REMARK  139  A    between atoms: _375  and  _376
REMARK  140  A    between atoms: _379  and  _381
REMARK  141  A    between atoms: _381  and  _382
REMARK  142  A    between atoms: _381  and  _384
REMARK  143  A    between atoms: _384  and  _385
REMARK  144  A    between atoms: _388  and  _390
REMARK  145  A    between atoms: _390  and  _391
REMARK  146  A    between atoms: _394  and  _396
REMARK  147  A    between atoms: _396  and  _397
REMARK  148  A    between atoms: _396  and  _399
REMARK  149  A    between atoms: _399  and  _400
REMARK  150  A    between atoms: _402  and  _404
REMARK  151  A    between atoms: _404  and  _405
REMARK  152  A    between atoms: _404  and  _407
REMARK  153  A    between atoms: _407  and  _408
REMARK  154  A    between atoms: _408  and  _409
REMARK  155  A    between atoms: _409  and  _410
REMARK  156  A    between atoms: _410  and  _411
REMARK  157  A    between atoms: _415  and  _417
REMARK  158  A    between atoms: _417  and  _418
REMARK  159  A    between atoms: _417  and  _420
REMARK  160  A    between atoms: _420  and  _421
REMARK  161  A    between atoms: _426  and  _428
REMARK  162  A    between atoms: _428  and  _429
REMARK  163  A    between atoms: _428  and  _431
REMARK  164  A    between atoms: _431  and  _432
REMARK  165  A    between atoms: _432  and  _433
REMARK  166  A    between atoms: _436  and  _438
REMARK  167  A    between atoms: _438  and  _439
REMARK  168  A    between atoms: _438  and  _441
REMARK  169  A    between atoms: _444  and  _446
REMARK  170  A    between atoms: _446  and  _447
REMARK  171  A    between atoms: _446  and  _449
REMARK  172  A    between atoms: _449  and  _450
REMARK  173  A    between atoms: _453  and  _455
REMARK  174  A    between atoms: _455  and  _456
REMARK  175  A    between atoms: _455  and  _458
REMARK  176  A    between atoms: _458  and  _459
REMARK  177  A    between atoms: _462  and  _464
REMARK  178  A    between atoms: _464  and  _465
REMARK  179  A    between atoms: _464  and  _467
REMARK  180  A    between atoms: _467  and  _468
REMARK  181  A    between atoms: _471  and  _473
REMARK  182  A    between atoms: _473  and  _474
REMARK  183  A    between atoms: _476  and  _478
REMARK  184  A    between atoms: _478  and  _479
REMARK  185  A    between atoms: _478  and  _481
REMARK  186  A    between atoms: _481  and  _482
REMARK  187  A    between atoms: _482  and  _483
REMARK  188  A    between atoms: _486  and  _488
REMARK  189  A    between atoms: _488  and  _489
REMARK  190  A    between atoms: _488  and  _491
REMARK  191  A    between atoms: _491  and  _492
REMARK  192  A    between atoms: _495  and  _497
REMARK  193  A    between atoms: _497  and  _498
REMARK  194  A    between atoms: _497  and  _500
REMARK  195  A    between atoms: _500  and  _501
REMARK  196  A    between atoms: _507  and  _509
REMARK  197  A    between atoms: _509  and  _510
REMARK  198  A    between atoms: _509  and  _512
REMARK  199  A    between atoms: _512  and  _513
REMARK  200  A    between atoms: _518  and  _520
REMARK  201  A    between atoms: _520  and  _521
REMARK  202  A    between atoms: _520  and  _523
REMARK  203  A    between atoms: _523  and  _524
REMARK  204  A    between atoms: _529  and  _531
REMARK  205  A    between atoms: _531  and  _532
REMARK  206  A    between atoms: _531  and  _534
REMARK  207  A    between atoms: _534  and  _535
REMARK  208  A    between atoms: _538  and  _540
REMARK  209  A    between atoms: _540  and  _541
REMARK  210  A    between atoms: _540  and  _543
REMARK  211  A    between atoms: _543  and  _544
REMARK  212  A    between atoms: _549  and  _551
REMARK  213  A    between atoms: _551  and  _552
REMARK  214  A    between atoms: _551  and  _554
REMARK  215  A    between atoms: _554  and  _555
REMARK  216  A    between atoms: _555  and  _556
REMARK  217  A    between atoms: _556  and  _557
REMARK  218  A    between atoms: _566  and  _568
REMARK  219  A    between atoms: _568  and  _569
REMARK  220  A    between atoms: _571  and  _573
REMARK  221  A    between atoms: _573  and  _574
REMARK  222  A    between atoms: _573  and  _576
REMARK  223  A    between atoms: _576  and  _577
REMARK  224  A    between atoms: _582  and  _584
REMARK  225  A    between atoms: _584  and  _585
REMARK  226  A    between atoms: _587  and  _589
REMARK  227  A    between atoms: _589  and  _590
REMARK  228  A    between atoms: _593  and  _595
REMARK  229  A    between atoms: _595  and  _596
REMARK  230  A    between atoms: _598  and  _600
REMARK  231  A    between atoms: _600  and  _601
REMARK  232  A    between atoms: _600  and  _603
REMARK  233  A    between atoms: _603  and  _604
REMARK  234  A    between atoms: _604  and  _605
REMARK  235  A    between atoms: _605  and  _606
REMARK  236  A    between atoms: _615  and  _617
REMARK  237  A    between atoms: _617  and  _618
REMARK  238  A    between atoms: _617  and  _620
REMARK  239  A    between atoms: _620  and  _621
REMARK  240  A    between atoms: _624  and  _626
REMARK  241  A    between atoms: _626  and  _627
REMARK  242  A    between atoms: _626  and  _629
REMARK  243  A    between atoms: _629  and  _630
REMARK                            x       y       z     vdW  Elec       q    Type
REMARK                         _______ _______ _______ _____ _____    ______ ____
ROOT
ATOM      1  CA  ILE A   1       0.175  53.690   2.391  0.00  0.00    +0.133 C 
ENDROOT
BRANCH   1   2
ATOM      2  N   ILE A   1      -0.931  53.077   1.668  0.00  0.00    -0.239 NA
ATOM      3  H   ILE A   1      -1.425  52.265   2.090  0.00  0.00    +0.142 HD
ENDBRANCH   1   2
BRANCH   1   4
ATOM      4  CB  ILE A   1      -0.151  53.628   3.908  0.00  0.00    +0.023 C 
ATOM      5  CG2 ILE A   1       0.920  54.359   4.719  0.00  0.00    +0.002 C 
BRANCH   4   6
ATOM      6  CG1 ILE A   1      -1.525  54.289   4.133  0.00  0.00    +0.002 C 
ATOM      7  CD1 ILE A   1      -2.101  54.251   5.529  0.00  0.00    +0.000 C 
ENDBRANCH   4   6
ENDBRANCH   1   4
BRANCH   1   8
ATOM      8  C   ILE A   1       1.518  53.033   2.059  0.00  0.00    +0.224 C 
ATOM      9  O   ILE A   1       1.608  51.809   1.955  0.00  0.00    -0.287 OA
ENDBRANCH   1   8
TORSDOF 4
REMARK  Name = ../refined-set-2016/1ppi/1ppi_pocket.pdb
REMARK  243 active torsions:
REMARK  status: ('A' for Active; 'I' for Inactive)
REMARK    1  A    between atoms: _1  and  _3
REMARK    2  A    between atoms: _3  and  _4
REMARK    3  A    between atoms: _3  and  _6
REMARK    4  A    between atoms: _6  and  _7
REMARK    5  A    between atoms: _12  and  _14
REMARK    6  A    between atoms: _14  and  _15
REMARK    7  A    between atoms: _14  and  _17
REMARK    8  A    between atoms: _17  and  _18
REMARK    9  A    between atoms: _24  and  _26
REMARK   10  A    between atoms: _26  and  _27
REMARK   11  A    between atoms: _26  and  _29
REMARK   12  A    between atoms: _29  and  _30
REMARK   13  A    between atoms: _30  and  _31
REMARK   14  A    between atoms: _37  and  _38
REMARK   15  A    between atoms: _43  and  _45
REMARK   16  A    between atoms: _45  and  _46
REMARK   17  A    between atoms: _45  and  _48
REMARK   18  A    between atoms: _48  and  _49
REMARK   19  A    between atoms: _54  and  _56
REMARK   20  A    between atoms: _56  and  _57
REMARK   21  A    between atoms: _56  and  _59
REMARK   22  A    between atoms: _62  and  _64
REMARK   23  A    between atoms: _64  and  _65
REMARK   24  A    between atoms: _64  and  _67
REMARK   25  A    between atoms: _71  and  _72
REMARK   26  A    between atoms: _78  and  _79
REMARK   27  A    between atoms: _84  and  _86
REMARK   28  A    between atoms: _86  and  _87
REMARK   29  A    between atoms: _86  and  _89
REMARK   30  A    between atoms: _89  and  _90
REMARK   31  A    between atoms: _100  and  _102
REMARK   32  A    between atoms: _102  and  _103
REMARK   33  A    between atoms: _102  and  _105
REMARK   34  A    between atoms: _105  and  _106
REMARK   35  A    between atoms: _116  and  _118
REMARK   36  A    between atoms: _118  and  _119
REMARK   37  A    between atoms: _118  and  _121
REMARK   38  A    between atoms: _121  and  _122
REMARK   39  A    between atoms: _122  and  _123
REMARK   40  A    between atoms: _126  and  _128
REMARK   41  A    between atoms: _128  and  _129
REMARK   42  A    between atoms: _128  and  _131
REMARK   43  A    between atoms: _131  and  _132
REMARK   44  A    between atoms: _132  and  _133
REMARK   45  A    between atoms: _133  and  _134
REMARK   46  A    between atoms: _143  and  _145
REMARK   47  A    between atoms: _145  and  _146
REMARK   48  A    between atoms: _145  and  _148
REMARK   49  A    between atoms: _148  and  _149
REMARK   50  A    between atoms: _154  and  _155
REMARK   51  A    between atoms: _157  and  _159
REMARK   52  A    between atoms: _159  and  _160
REMARK   53  A    between atoms: _159  and  _162
REMARK   54  A    between atoms: _162  and  _163
REMARK   55  A    between atoms: _163  and  _164
REMARK   56  A    between atoms: _170  and  _171
REMARK   57  A    between atoms: _176  and  _178
REMARK   58  A    between atoms: _178  and  _179
REMARK   59  A    between atoms: _178  and  _181
REMARK   60  A    between atoms: _181  and  _182
REMARK   61  A    between atoms: _185  and  _187
REMARK   62  A    between atoms: _187  and  _188
REMARK   63  A    between atoms: _191  and  _193
REMARK   64  A    between atoms: _193  and  _194
REMARK   65  A    between atoms: _193  and  _196
REMARK   66  A    between atoms: _199  and  _201
REMARK   67  A    between atoms: _201  and  _202
REMARK   68  A    between atoms: _201  and  _204
REMARK   69  A    between atoms: _204  and  _205
REMARK   70  A    between atoms: _208  and  _210
REMARK   71  A    between atoms: _210  and  _211
REMARK   72  A    between atoms: _210  and  _213
REMARK   73  A    between atoms: _213  and  _214
REMARK   74  A    between atoms: _219  and  _221
REMARK   75  A    between atoms: _221  and  _222
REMARK   76  A    between atoms: _221  and  _224
REMARK   77  A    between atoms: _224  and  _225
REMARK   78  A    between atoms: _230  and  _232
REMARK   79  A    between atoms: _232  and  _233
REMARK   80  A    between atoms: _232  and  _235
REMARK   81  A    between atoms: _235  and  _236
REMARK   82  A    between atoms: _236  and  _237
REMARK   83  A    between atoms: _239  and  _241
REMARK   84  A    between atoms: _241  and  _242
REMARK   85  A    between atoms: _241  and  _244
REMARK   86  A    between atoms: _246  and  _248
REMARK   87  A    between atoms: _248  and  _249
REMARK   88  A    between atoms: _251  and  _253
REMARK   89  A    between atoms: _253  and  _254
REMARK   90  A    between atoms: _253  and  _256
REMARK   91  A    between atoms: _256  and  _257
REMARK   92  A    between atoms: _259  and  _261
REMARK   93  A    between atoms: _261  and  _262
REMARK   94  A    between atoms: _264  and  _266
REMARK   95  A    between atoms: _266  and  _267
REMARK   96  A    between atoms: _270  and  _272
REMARK   97  A    between atoms: _272  and  _273
REMARK   98  A    between atoms: _272  and  _275
REMARK   99  A    between atoms: _275  and  _276
REMARK  100  A    between atoms: _279  and  _281
REMARK  101  A    between atoms: _281  and  _282
REMARK  102  A    between atoms: _281  and  _284
REMARK  103  A    between atoms: _284  and  _285
REMARK  104  A    between atoms: _290  and  _291
REMARK  105  A    between atoms: _293  and  _295
REMARK  106  A    between atoms: _295  and  _296
REMARK  107  A    between atoms: _295  and  _298
REMARK  108  A    between atoms: _301  and  _303
REMARK  109  A    between atoms: _303  and  _304
REMARK  110  A    between atoms: _303  and  _306
REMARK  111  A    between atoms: _306  and  _307
REMARK  112  A    between atoms: _307  and  _308
REMARK  113  A    between atoms: _313  and  _315
REMARK  114  A    between atoms: _315  and  _316
REMARK  115  A    between atoms: _315  and  _318
REMARK  116  A    between atoms: _318  and  _319
REMARK  117  A    between atoms: _322  and  _324
REMARK  118  A    between atoms: _324  and  _325
REMARK  119  A    between atoms: _324  and  _327
REMARK  120  A    between atoms: _330  and  _332
REMARK  121  A    between atoms: _332  and  _333
REMARK  122  A    between atoms: _335  and  _337
REMARK  123  A    between atoms: _337  and  _338
REMARK  124  A    between atoms: _337  and  _340
REMARK  125  A    between atoms: _340  and  _341
REMARK  126  A    between atoms: _344  and  _346
REMARK  127  A    between atoms: _346  and  _347
REMARK  128  A    between atoms: _346  and  _349
REMARK  129  A    between atoms: _349  and  _350
REMARK  130  A    between atoms: _353  and  _355
REMARK  131  A    between atoms: _355  and  _356
REMARK  132  A    between atoms: _355  and  _358
REMARK  133  A    between atoms: _358  and  _359
REMARK  134  A    between atoms: _359  and  _360
REMARK  135  A    between atoms: _360  and  _361
REMARK  136  A    between atoms: _370  and  _372
REMARK  137  A    between atoms: _372  and  _373
REMARK  138  A    between atoms: _372  and  _375
REMARK  139  A    between atoms: _375  and  _376
REMARK  140  A    between atoms: _379  and  _381
REMARK  141  A    between atoms: _381  and  _382
REMARK  142  A    between atoms: _381  and  _384
REMARK  143  A    between atoms: _384  and  _385
REMARK  144  A    between atoms: _388  and  _390
REMARK  145  A    between atoms: _390  and  _391
REMARK  146  A    between atoms: _394  and  _396
REMARK  147  A    between atoms: _396  and  _397
REMARK  148  A    between atoms: _396  and  _399
REMARK  149  A    between atoms: _399  and  _400
REMARK  150  A    between atoms: _402  and  _404
REMARK  151  A    between atoms: _404  and  _405
REMARK  152  A    between atoms: _404  and  _407
REMARK  153  A    between atoms: _407  and  _408
REMARK  154  A    between atoms: _408  and  _409
REMARK  155  A    between atoms: _409  and  _410
REMARK  156  A    between atoms: _410  and  _411
REMARK  157  A    between atoms: _415  and  _417
REMARK  158  A    between atoms: _417  and  _418
REMARK  159  A    between atoms: _417  and  _420
REMARK  160  A    between atoms: _420  and  _421
REMARK  161  A    between atoms: _426  and  _428
REMARK  162  A    between atoms: _428  and  _429
REMARK  163  A    between atoms: _428  and  _431
REMARK  164  A    between atoms: _431  and  _432
REMARK  165  A    between atoms: _432  and  _433
REMARK  166  A    between atoms: _436  and  _438
REMARK  167  A    between atoms: _438  and  _439
REMARK  168  A    between atoms: _438  and  _441
REMARK  169  A    between atoms: _444  and  _446
REMARK  170  A    between atoms: _446  and  _447
REMARK  171  A    between atoms: _446  and  _449
REMARK  172  A    between atoms: _449  and  _450
REMARK  173  A    between atoms: _453  and  _455
REMARK  174  A    between atoms: _455  and  _456
REMARK  175  A    between atoms: _455  and  _458
REMARK  176  A    between atoms: _458  and  _459
REMARK  177  A    between atoms: _462  and  _464
REMARK  178  A    between atoms: _464  and  _465
REMARK  179  A    between atoms: _464  and  _467
REMARK  180  A    between atoms: _467  and  _468
REMARK  181  A    between atoms: _471  and  _473
REMARK  182  A    between atoms: _473  and  _474
REMARK  183  A    between atoms: _476  and  _478
REMARK  184  A    between atoms: _478  and  _479
REMARK  185  A    between atoms: _478  and  _481
REMARK  186  A    between atoms: _481  and  _482
REMARK  187  A    between atoms: _482  and  _483
REMARK  188  A    between atoms: _486  and  _488
REMARK  189  A    between atoms: _488  and  _489
REMARK  190  A    between atoms: _488  and  _491
REMARK  191  A    between atoms: _491  and  _492
REMARK  192  A    between atoms: _495  and  _497
REMARK  193  A    between atoms: _497  and  _498
REMARK  194  A    between atoms: _497  and  _500
REMARK  195  A    between atoms: _500  and  _501
REMARK  196  A    between atoms: _507  and  _509
REMARK  197  A    between atoms: _509  and  _510
REMARK  198  A    between atoms: _509  and  _512
REMARK  199  A    between atoms: _512  and  _513
REMARK  200  A    between atoms: _518  and  _520
REMARK  201  A    between atoms: _520  and  _521
REMARK  202  A    between atoms: _520  and  _523
REMARK  203  A    between atoms: _523  and  _524
REMARK  204  A    between atoms: _529  and  _531
REMARK  205  A    between atoms: _531  and  _532
REMARK  206  A    between atoms: _531  and  _534
REMARK  207  A    between atoms: _534  and  _535
REMARK  208  A    between atoms: _538  and  _540
REMARK  209  A    between atoms: _540  and  _541
REMARK  210  A    between atoms: _540  and  _543
REMARK  211  A    between atoms: _543  and  _544
REMARK  212  A    between atoms: _549  and  _551
REMARK  213  A    between atoms: _551  and  _552
REMARK  214  A    between atoms: _551  and  _554
REMARK  215  A    between atoms: _554  and  _555
REMARK  216  A    between atoms: _555  and  _556
REMARK  217  A    between atoms: _556  and  _557
REMARK  218  A    between atoms: _566  and  _568
REMARK  219  A    between atoms: _568  and  _569
REMARK  220  A    between atoms: _571  and  _573
REMARK  221  A    between atoms: _573  and  _574
REMARK  222  A    between atoms: _573  and  _576
REMARK  223  A    between atoms: _576  and  _577
REMARK  224  A    between atoms: _582  and  _584
REMARK  225  A    between atoms: _584  and  _585
REMARK  226  A    between atoms: _587  and  _589
REMARK  227  A    between atoms: _589  and  _590
REMARK  228  A    between atoms: _593  and  _595
REMARK  229  A    between atoms: _595  and  _596
REMARK  230  A    between atoms: _598  and  _600
REMARK  231  A    between atoms: _600  and  _601
REMARK  232  A    between atoms: _600  and  _603
REMARK  233  A    between atoms: _603  and  _604
REMARK  234  A    between atoms: _604  and  _605
REMARK  235  A    between atoms: _605  and  _606
REMARK  236  A    between atoms: _615  and  _617
REMARK  237  A    between atoms: _617  and  _618
REMARK  238  A    between atoms: _617  and  _620
REMARK  239  A    between atoms: _620  and  _621
REMARK  240  A    between atoms: _624  and  _626
REMARK  241  A    between atoms: _626  and  _627
REMARK  242  A    between atoms: _626  and  _629
REMARK  243  A    between atoms: _629  and  _630
REMARK                            x       y       z     vdW  Elec       q    Type
REMARK                         _______ _______ _______ _____ _____    ______ ____
ROOT
ATOM      1  CB  PHE A   1       7.395  43.964   6.734  0.00  0.00    +0.051 C 
ENDROOT
BRANCH   1   2
ATOM      2  CG  PHE A   1       7.159  44.159   8.235  0.00  0.00    -0.020 A 
ATOM      3  CD2 PHE A   1       7.050  43.056   9.055  0.00  0.00    -0.004 A 
ATOM      4  CE2 PHE A   1       6.878  43.209  10.418  0.00  0.00    -0.000 A 
ATOM      5  CZ  PHE A   1       6.818  44.477  10.955  0.00  0.00    -0.000 A 
ATOM      6  CE1 PHE A   1       6.925  45.574  10.121  0.00  0.00    -0.000 A 
ATOM      7  CD1 PHE A   1       7.093  45.427   8.761  0.00  0.00    -0.004 A 
ENDBRANCH   1   2
BRANCH   1   8
ATOM      8  CA  PHE A   1       8.859  43.833   6.388  0.00  0.00    +0.137 C 
BRANCH   8   9
ATOM      9  N   PHE A   1       9.450  45.173   6.314  0.00  0.00    -0.239 NA
ATOM     10  H   PHE A   1       8.822  45.991   6.182  0.00  0.00    +0.142 HD
ENDBRANCH   8   9
BRANCH   8  11
ATOM     11  C   PHE A   1       9.022  42.936   5.142  0.00  0.00    +0.224 C 
ATOM     12  O   PHE A   1       8.833  41.723   5.211  0.00  0.00    -0.287 OA
ENDBRANCH   8  11
ENDBRANCH   1   8
TORSDOF 4
REMARK  Name = ../refined-set-2016/1ppi/1ppi_pocket.pdb
REMARK  243 active torsions:
REMARK  status: ('A' for Active; 'I' for Inactive)
REMARK    1  A    between atoms: _1  and  _3
REMARK    2  A    between atoms: _3  and  _4
REMARK    3  A    between atoms: _3  and  _6
REMARK    4  A    between atoms: _6  and  _7
REMARK    5  A    between atoms: _12  and  _14
REMARK    6  A    between atoms: _14  and  _15
REMARK    7  A    between atoms: _14  and  _17
REMARK    8  A    between atoms: _17  and  _18
REMARK    9  A    between atoms: _24  and  _26
REMARK   10  A    between atoms: _26  and  _27
REMARK   11  A    between atoms: _26  and  _29
REMARK   12  A    between atoms: _29  and  _30
REMARK   13  A    between atoms: _30  and  _31
REMARK   14  A    between atoms: _37  and  _38
REMARK   15  A    between atoms: _43  and  _45
REMARK   16  A    between atoms: _45  and  _46
REMARK   17  A    between atoms: _45  and  _48
REMARK   18  A    between atoms: _48  and  _49
REMARK   19  A    between atoms: _54  and  _56
REMARK   20  A    between atoms: _56  and  _57
REMARK   21  A    between atoms: _56  and  _59
REMARK   22  A    between atoms: _62  and  _64
REMARK   23  A    between atoms: _64  and  _65
REMARK   24  A    between atoms: _64  and  _67
REMARK   25  A    between atoms: _71  and  _72
REMARK   26  A    between atoms: _78  and  _79
REMARK   27  A    between atoms: _84  and  _86
REMARK   28  A    between atoms: _86  and  _87
REMARK   29  A    between atoms: _86  and  _89
REMARK   30  A    between atoms: _89  and  _90
REMARK   31  A    between atoms: _100  and  _102
REMARK   32  A    between atoms: _102  and  _103
REMARK   33  A    between atoms: _102  and  _105
REMARK   34  A    between atoms: _105  and  _106
REMARK   35  A    between atoms: _116  and  _118
REMARK   36  A    between atoms: _118  and  _119
REMARK   37  A    between atoms: _118  and  _121
REMARK   38  A    between atoms: _121  and  _122
REMARK   39  A    between atoms: _122  and  _123
REMARK   40  A    between atoms: _126  and  _128
REMARK   41  A    between atoms: _128  and  _129
REMARK   42  A    between atoms: _128  and  _131
REMARK   43  A    between atoms: _131  and  _132
REMARK   44  A    between atoms: _132  and  _133
REMARK   45  A    between atoms: _133  and  _134
REMARK   46  A    between atoms: _143  and  _145
REMARK   47  A    between atoms: _145  and  _146
REMARK   48  A    between atoms: _145  and  _148
REMARK   49  A    between atoms: _148  and  _149
REMARK   50  A    between atoms: _154  and  _155
REMARK   51  A    between atoms: _157  and  _159
REMARK   52  A    between atoms: _159  and  _160
REMARK   53  A    between atoms: _159  and  _162
REMARK   54  A    between atoms: _162  and  _163
REMARK   55  A    between atoms: _163  and  _164
REMARK   56  A    between atoms: _170  and  _171
REMARK   57  A    between atoms: _176  and  _178
REMARK   58  A    between atoms: _178  and  _179
REMARK   59  A    between atoms: _178  and  _181
REMARK   60  A    between atoms: _181  and  _182
REMARK   61  A    between atoms: _185  and  _187
REMARK   62  A    between atoms: _187  and  _188
REMARK   63  A    between atoms: _191  and  _193
REMARK   64  A    between atoms: _193  and  _194
REMARK   65  A    between atoms: _193  and  _196
REMARK   66  A    between atoms: _199  and  _201
REMARK   67  A    between atoms: _201  and  _202
REMARK   68  A    between atoms: _201  and  _204
REMARK   69  A    between atoms: _204  and  _205
REMARK   70  A    between atoms: _208  and  _210
REMARK   71  A    between atoms: _210  and  _211
REMARK   72  A    between atoms: _210  and  _213
REMARK   73  A    between atoms: _213  and  _214
REMARK   74  A    between atoms: _219  and  _221
REMARK   75  A    between atoms: _221  and  _222
REMARK   76  A    between atoms: _221  and  _224
REMARK   77  A    between atoms: _224  and  _225
REMARK   78  A    between atoms: _230  and  _232
REMARK   79  A    between atoms: _232  and  _233
REMARK   80  A    between atoms: _232  and  _235
REMARK   81  A    between atoms: _235  and  _236
REMARK   82  A    between atoms: _236  and  _237
REMARK   83  A    between atoms: _239  and  _241
REMARK   84  A    between atoms: _241  and  _242
REMARK   85  A    between atoms: _241  and  _244
REMARK   86  A    between atoms: _246  and  _248
REMARK   87  A    between atoms: _248  and  _249
REMARK   88  A    between atoms: _251  and  _253
REMARK   89  A    between atoms: _253  and  _254
REMARK   90  A    between atoms: _253  and  _256
REMARK   91  A    between atoms: _256  and  _257
REMARK   92  A    between atoms: _259  and  _261
REMARK   93  A    between atoms: _261  and  _262
REMARK   94  A    between atoms: _264  and  _266
REMARK   95  A    between atoms: _266  and  _267
REMARK   96  A    between atoms: _270  and  _272
REMARK   97  A    between atoms: _272  and  _273
REMARK   98  A    between atoms: _272  and  _275
REMARK   99  A    between atoms: _275  and  _276
REMARK  100  A    between atoms: _279  and  _281
REMARK  101  A    between atoms: _281  and  _282
REMARK  102  A    between atoms: _281  and  _284
REMARK  103  A    between atoms: _284  and  _285
REMARK  104  A    between atoms: _290  and  _291
REMARK  105  A    between atoms: _293  and  _295
REMARK  106  A    between atoms: _295  and  _296
REMARK  107  A    between atoms: _295  and  _298
REMARK  108  A    between atoms: _301  and  _303
REMARK  109  A    between atoms: _303  and  _304
REMARK  110  A    between atoms: _303  and  _306
REMARK  111  A    between atoms: _306  and  _307
REMARK  112  A    between atoms: _307  and  _308
REMARK  113  A    between atoms: _313  and  _315
REMARK  114  A    between atoms: _315  and  _316
REMARK  115  A    between atoms: _315  and  _318
REMARK  116  A    between atoms: _318  and  _319
REMARK  117  A    between atoms: _322  and  _324
REMARK  118  A    between atoms: _324  and  _325
REMARK  119  A    between atoms: _324  and  _327
REMARK  120  A    between atoms: _330  and  _332
REMARK  121  A    between atoms: _332  and  _333
REMARK  122  A    between atoms: _335  and  _337
REMARK  123  A    between atoms: _337  and  _338
REMARK  124  A    between atoms: _337  and  _340
REMARK  125  A    between atoms: _340  and  _341
REMARK  126  A    between atoms: _344  and  _346
REMARK  127  A    between atoms: _346  and  _347
REMARK  128  A    between atoms: _346  and  _349
REMARK  129  A    between atoms: _349  and  _350
REMARK  130  A    between atoms: _353  and  _355
REMARK  131  A    between atoms: _355  and  _356
REMARK  132  A    between atoms: _355  and  _358
REMARK  133  A    between atoms: _358  and  _359
REMARK  134  A    between atoms: _359  and  _360
REMARK  135  A    between atoms: _360  and  _361
REMARK  136  A    between atoms: _370  and  _372
REMARK  137  A    between atoms: _372  and  _373
REMARK  138  A    between atoms: _372  and  _375
REMARK  139  A    between atoms: _375  and  _376
REMARK  140  A    between atoms: _379  and  _381
REMARK  141  A    between atoms: _381  and  _382
REMARK  142  A    between atoms: _381  and  _384
REMARK  143  A    between atoms: _384  and  _385
REMARK  144  A    between atoms: _388  and  _390
REMARK  145  A    between atoms: _390  and  _391
REMARK  146  A    between atoms: _394  and  _396
REMARK  147  A    between atoms: _396  and  _397
REMARK  148  A    between atoms: _396  and  _399
REMARK  149  A    between atoms: _399  and  _400
REMARK  150  A    between atoms: _402  and  _404
REMARK  151  A    between atoms: _404  and  _405
REMARK  152  A    between atoms: _404  and  _407
REMARK  153  A    between atoms: _407  and  _408
REMARK  154  A    between atoms: _408  and  _409
REMARK  155  A    between atoms: _409  and  _410
REMARK  156  A    between atoms: _410  and  _411
REMARK  157  A    between atoms: _415  and  _417
REMARK  158  A    between atoms: _417  and  _418
REMARK  159  A    between atoms: _417  and  _420
REMARK  160  A    between atoms: _420  and  _421
REMARK  161  A    between atoms: _426  and  _428
REMARK  162  A    between atoms: _428  and  _429
REMARK  163  A    between atoms: _428  and  _431
REMARK  164  A    between atoms: _431  and  _432
REMARK  165  A    between atoms: _432  and  _433
REMARK  166  A    between atoms: _436  and  _438
REMARK  167  A    between atoms: _438  and  _439
REMARK  168  A    between atoms: _438  and  _441
REMARK  169  A    between atoms: _444  and  _446
REMARK  170  A    between atoms: _446  and  _447
REMARK  171  A    between atoms: _446  and  _449
REMARK  172  A    between atoms: _449  and  _450
REMARK  173  A    between atoms: _453  and  _455
REMARK  174  A    between atoms: _455  and  _456
REMARK  175  A    between atoms: _455  and  _458
REMARK  176  A    between atoms: _458  and  _459
REMARK  177  A    between atoms: _462  and  _464
REMARK  178  A    between atoms: _464  and  _465
REMARK  179  A    between atoms: _464  and  _467
REMARK  180  A    between atoms: _467  and  _468
REMARK  181  A    between atoms: _471  and  _473
REMARK  182  A    between atoms: _473  and  _474
REMARK  183  A    between atoms: _476  and  _478
REMARK  184  A    between atoms: _478  and  _479
REMARK  185  A    between atoms: _478  and  _481
REMARK  186  A    between atoms: _481  and  _482
REMARK  187  A    between atoms: _482  and  _483
REMARK  188  A    between atoms: _486  and  _488
REMARK  189  A    between atoms: _488  and  _489
REMARK  190  A    between atoms: _488  and  _491
REMARK  191  A    between atoms: _491  and  _492
REMARK  192  A    between atoms: _495  and  _497
REMARK  193  A    between atoms: _497  and  _498
REMARK  194  A    between atoms: _497  and  _500
REMARK  195  A    between atoms: _500  and  _501
REMARK  196  A    between atoms: _507  and  _509
REMARK  197  A    between atoms: _509  and  _510
REMARK  198  A    between atoms: _509  and  _512
REMARK  199  A    between atoms: _512  and  _513
REMARK  200  A    between atoms: _518  and  _520
REMARK  201  A    between atoms: _520  and  _521
REMARK  202  A    between atoms: _520  and  _523
REMARK  203  A    between atoms: _523  and  _524
REMARK  204  A    between atoms: _529  and  _531
REMARK  205  A    between atoms: _531  and  _532
REMARK  206  A    between atoms: _531  and  _534
REMARK  207  A    between atoms: _534  and  _535
REMARK  208  A    between atoms: _538  and  _540
REMARK  209  A    between atoms: _540  and  _541
REMARK  210  A    between atoms: _540  and  _543
REMARK  211  A    between atoms: _543  and  _544
REMARK  212  A    between atoms: _549  and  _551
REMARK  213  A    between atoms: _551  and  _552
REMARK  214  A    between atoms: _551  and  _554
REMARK  215  A    between atoms: _554  and  _555
REMARK  216  A    between atoms: _555  and  _556
REMARK  217  A    between atoms: _556  and  _557
REMARK  218  A    between atoms: _566  and  _568
REMARK  219  A    between atoms: _568  and  _569
REMARK  220  A    between atoms: _571  and  _573
REMARK  221  A    between atoms: _573  and  _574
REMARK  222  A    between atoms: _573  and  _576
REMARK  223  A    between atoms: _576  and  _577
REMARK  224  A    between atoms: _582  and  _584
REMARK  225  A    between atoms: _584  and  _585
REMARK  226  A    between atoms: _587  and  _589
REMARK  227  A    between atoms: _589  and  _590
REMARK  228  A    between atoms: _593  and  _595
REMARK  229  A    between atoms: _595  and  _596
REMARK  230  A    between atoms: _598  and  _600
REMARK  231  A    between atoms: _600  and  _601
REMARK  232  A    between atoms: _600  and  _603
REMARK  233  A    between atoms: _603  and  _604
REMARK  234  A    between atoms: _604  and  _605
REMARK  235  A    between atoms: _605  and  _606
REMARK  236  A    between atoms: _615  and  _617
REMARK  237  A    between atoms: _617  and  _618
REMARK  238  A    between atoms: _617  and  _620
REMARK  239  A    between atoms: _620  and  _621
REMARK  240  A    between atoms: _624  and  _626
REMARK  241  A    between atoms: _626  and  _627
REMARK  242  A    between atoms: _626  and  _629
REMARK  243  A    between atoms: _629  and  _630
REMARK                            x       y       z     vdW  Elec       q    Type
REMARK                         _______ _______ _______ _____ _____    ______ ____
ROOT
ATOM      1  C   HIS A   2       5.585  38.820  17.234  0.00  0.00    +0.241 C 
ATOM      2  O   HIS A   2       4.818  38.008  17.742  0.00  0.00    -0.273 OA
ATOM      3  N   ASP A   3       5.202  39.524  16.173  0.00  0.00    -0.297 N 
ATOM      4  H   ASP A   3       5.848  40.226  15.759  0.00  0.00    +0.150 HD
ENDROOT
BRANCH   3   5
ATOM      5  CA  ASP A   3       3.887  39.319  15.588  0.00  0.00    +0.160 C 
BRANCH   5   6
ATOM      6  C   ASP A   3       3.925  38.147  14.623  0.00  0.00    +0.241 C 
ATOM      7  O   ASP A   3       3.213  37.158  14.782  0.00  0.00    -0.273 OA
ATOM      8  N   ASN A   4       4.769  38.216  13.589  0.00  0.00    -0.298 N 
ATOM      9  H   ASN A   4       5.479  38.974  13.543  0.00  0.00    +0.150 HD
BRANCH   8  10
ATOM     10  CA  ASN A   4       4.688  37.230  12.536  0.00  0.00    +0.146 C 
BRANCH  10  11
ATOM     11  C   ASN A   4       5.350  35.905  12.855  0.00  0.00    +0.227 C 
ATOM     12  O   ASN A   4       5.137  34.939  12.126  0.00  0.00    -0.286 OA
ENDBRANCH  10  11
BRANCH  10  13
ATOM     13  CB  ASN A   4       5.241  37.850  11.228  0.00  0.00    +0.112 C 
BRANCH  13  14
ATOM     14  CG  ASN A   4       6.706  38.238  11.137  0.00  0.00    +0.222 C 
ATOM     15  OD1 ASN A   4       7.543  37.772  11.924  0.00  0.00    -0.275 OA
ATOM     16  ND2 ASN A   4       7.057  39.071  10.145  0.00  0.00    -0.329 N 
ATOM     17 HD21 ASN A   4       8.054  39.341  10.021  0.00  0.00    +0.145 HD
ATOM     18 HD22 ASN A   4       6.332  39.446   9.500  0.00  0.00    +0.145 HD
ENDBRANCH  13  14
ENDBRANCH  10  13
ENDBRANCH   8  10
ENDBRANCH   5   6
BRANCH   5  19
ATOM     19  CB  ASP A   3       3.428  40.537  14.803  0.00  0.00    +0.143 C 
BRANCH  19  20
ATOM     20  CG  ASP A   3       2.671  41.624  15.557  0.00  0.00    +0.367 C 
ATOM     21  OD2 ASP A   3       2.252  41.358  16.681  0.00  0.00    -0.246 OA
ATOM     22  OD1 ASP A   3       2.476  42.727  15.011  0.00  0.00    -0.246 OA
ENDBRANCH  19  20
ENDBRANCH   5  19
ENDBRANCH   3   5
BRANCH   1  23
ATOM     23  CA  HIS A   2       6.943  39.088  17.846  0.00  0.00    +0.155 C 
BRANCH  23  25
ATOM     24  C   ASN A   1       8.260  39.128  15.800  0.00  0.00    +0.239 C 
ATOM     25  N   HIS A   2       7.906  39.715  16.936  0.00  0.00    -0.297 N 
ATOM     26  H   HIS A   2       8.319  40.636  17.185  0.00  0.00    +0.150 HD
ATOM     27  O   ASN A   1       7.799  38.009  15.514  0.00  0.00    -0.274 OA
BRANCH  24  28
ATOM     28  CA  ASN A   1       9.290  39.835  14.930  0.00  0.00    +0.154 C 
BRANCH  28  29
ATOM     29  N   ASN A   1       9.504  38.980  13.789  0.00  0.00    -0.238 NA
ATOM     30  H   ASN A   1       8.684  38.636  13.249  0.00  0.00    +0.142 HD
ENDBRANCH  28  29
BRANCH  28  31
ATOM     31  CB  ASN A   1       8.827  41.230  14.452  0.00  0.00    +0.111 C 
BRANCH  31  32
ATOM     32  CG  ASN A   1       7.375  41.447  14.045  0.00  0.00    +0.221 C 
ATOM     33  ND2 ASN A   1       6.933  42.691  14.123  0.00  0.00    -0.329 N 
ATOM     34 HD21 ASN A   1       7.570  43.450  14.439  0.00  0.00    +0.145 HD
ATOM     35 HD22 ASN A   1       5.949  42.910  13.869  0.00  0.00    +0.145 HD
ATOM     36  OD1 ASN A   1       6.619  40.532  13.668  0.00  0.00    -0.275 OA
ENDBRANCH  31  32
ENDBRANCH  28  31
ENDBRANCH  24  28
ENDBRANCH  23  25
BRANCH  23  37
ATOM     37  CB  HIS A   2       6.766  39.962  19.113  0.00  0.00    +0.076 C 
BRANCH  37  38
ATOM     38  CG  HIS A   2       6.028  41.295  18.896  0.00  0.00    +0.082 A 
ATOM     39  CD2 HIS A   2       4.743  41.451  19.158  0.00  0.00    +0.115 A 
ATOM     40  NE2 HIS A   2       4.445  42.682  18.823  0.00  0.00    -0.221 NA
ATOM     41  CE1 HIS A   2       5.502  43.292  18.363  0.00  0.00    +0.199 A 
ATOM     42  ND1 HIS A   2       6.496  42.453  18.402  0.00  0.00    -0.227 NA
ENDBRANCH  37  38
ENDBRANCH  23  37
ENDBRANCH   1  23
TORSDOF 16
REMARK  Name = ../refined-set-2016/1ppi/1ppi_pocket.pdb
REMARK  243 active torsions:
REMARK  status: ('A' for Active; 'I' for Inactive)
REMARK    1  A    between atoms: _1  and  _3
REMARK    2  A    between atoms: _3  and  _4
REMARK    3  A    between atoms: _3  and  _6
REMARK    4  A    between atoms: _6  and  _7
REMARK    5  A    between atoms: _12  and  _14
REMARK    6  A    between atoms: _14  and  _15
REMARK    7  A    between atoms: _14  and  _17
REMARK    8  A    between atoms: _17  and  _18
REMARK    9  A    between atoms: _24  and  _26
REMARK   10  A    between atoms: _26  and  _27
REMARK   11  A    between atoms: _26  and  _29
REMARK   12  A    between atoms: _29  and  _30
REMARK   13  A    between atoms: _30  and  _31
REMARK   14  A    between atoms: _37  and  _38
REMARK   15  A    between atoms: _43  and  _45
REMARK   16  A    between atoms: _45  and  _46
REMARK   17  A    between atoms: _45  and  _48
REMARK   18  A    between atoms: _48  and  _49
REMARK   19  A    between atoms: _54  and  _56
REMARK   20  A    between atoms: _56  and  _57
REMARK   21  A    between atoms: _56  and  _59
REMARK   22  A    between atoms: _62  and  _64
REMARK   23  A    between atoms: _64  and  _65
REMARK   24  A    between atoms: _64  and  _67
REMARK   25  A    between atoms: _71  and  _72
REMARK   26  A    between atoms: _78  and  _79
REMARK   27  A    between atoms: _84  and  _86
REMARK   28  A    between atoms: _86  and  _87
REMARK   29  A    between atoms: _86  and  _89
REMARK   30  A    between atoms: _89  and  _90
REMARK   31  A    between atoms: _100  and  _102
REMARK   32  A    between atoms: _102  and  _103
REMARK   33  A    between atoms: _102  and  _105
REMARK   34  A    between atoms: _105  and  _106
REMARK   35  A    between atoms: _116  and  _118
REMARK   36  A    between atoms: _118  and  _119
REMARK   37  A    between atoms: _118  and  _121
REMARK   38  A    between atoms: _121  and  _122
REMARK   39  A    between atoms: _122  and  _123
REMARK   40  A    between atoms: _126  and  _128
REMARK   41  A    between atoms: _128  and  _129
REMARK   42  A    between atoms: _128  and  _131
REMARK   43  A    between atoms: _131  and  _132
REMARK   44  A    between atoms: _132  and  _133
REMARK   45  A    between atoms: _133  and  _134
REMARK   46  A    between atoms: _143  and  _145
REMARK   47  A    between atoms: _145  and  _146
REMARK   48  A    between atoms: _145  and  _148
REMARK   49  A    between atoms: _148  and  _149
REMARK   50  A    between atoms: _154  and  _155
REMARK   51  A    between atoms: _157  and  _159
REMARK   52  A    between atoms: _159  and  _160
REMARK   53  A    between atoms: _159  and  _162
REMARK   54  A    between atoms: _162  and  _163
REMARK   55  A    between atoms: _163  and  _164
REMARK   56  A    between atoms: _170  and  _171
REMARK   57  A    between atoms: _176  and  _178
REMARK   58  A    between atoms: _178  and  _179
REMARK   59  A    between atoms: _178  and  _181
REMARK   60  A    between atoms: _181  and  _182
REMARK   61  A    between atoms: _185  and  _187
REMARK   62  A    between atoms: _187  and  _188
REMARK   63  A    between atoms: _191  and  _193
REMARK   64  A    between atoms: _193  and  _194
REMARK   65  A    between atoms: _193  and  _196
REMARK   66  A    between atoms: _199  and  _201
REMARK   67  A    between atoms: _201  and  _202
REMARK   68  A    between atoms: _201  and  _204
REMARK   69  A    between atoms: _204  and  _205
REMARK   70  A    between atoms: _208  and  _210
REMARK   71  A    between atoms: _210  and  _211
REMARK   72  A    between atoms: _210  and  _213
REMARK   73  A    between atoms: _213  and  _214
REMARK   74  A    between atoms: _219  and  _221
REMARK   75  A    between atoms: _221  and  _222
REMARK   76  A    between atoms: _221  and  _224
REMARK   77  A    between atoms: _224  and  _225
REMARK   78  A    between atoms: _230  and  _232
REMARK   79  A    between atoms: _232  and  _233
REMARK   80  A    between atoms: _232  and  _235
REMARK   81  A    between atoms: _235  and  _236
REMARK   82  A    between atoms: _236  and  _237
REMARK   83  A    between atoms: _239  and  _241
REMARK   84  A    between atoms: _241  and  _242
REMARK   85  A    between atoms: _241  and  _244
REMARK   86  A    between atoms: _246  and  _248
REMARK   87  A    between atoms: _248  and  _249
REMARK   88  A    between atoms: _251  and  _253
REMARK   89  A    between atoms: _253  and  _254
REMARK   90  A    between atoms: _253  and  _256
REMARK   91  A    between atoms: _256  and  _257
REMARK   92  A    between atoms: _259  and  _261
REMARK   93  A    between atoms: _261  and  _262
REMARK   94  A    between atoms: _264  and  _266
REMARK   95  A    between atoms: _266  and  _267
REMARK   96  A    between atoms: _270  and  _272
REMARK   97  A    between atoms: _272  and  _273
REMARK   98  A    between atoms: _272  and  _275
REMARK   99  A    between atoms: _275  and  _276
REMARK  100  A    between atoms: _279  and  _281
REMARK  101  A    between atoms: _281  and  _282
REMARK  102  A    between atoms: _281  and  _284
REMARK  103  A    between atoms: _284  and  _285
REMARK  104  A    between atoms: _290  and  _291
REMARK  105  A    between atoms: _293  and  _295
REMARK  106  A    between atoms: _295  and  _296
REMARK  107  A    between atoms: _295  and  _298
REMARK  108  A    between atoms: _301  and  _303
REMARK  109  A    between atoms: _303  and  _304
REMARK  110  A    between atoms: _303  and  _306
REMARK  111  A    between atoms: _306  and  _307
REMARK  112  A    between atoms: _307  and  _308
REMARK  113  A    between atoms: _313  and  _315
REMARK  114  A    between atoms: _315  and  _316
REMARK  115  A    between atoms: _315  and  _318
REMARK  116  A    between atoms: _318  and  _319
REMARK  117  A    between atoms: _322  and  _324
REMARK  118  A    between atoms: _324  and  _325
REMARK  119  A    between atoms: _324  and  _327
REMARK  120  A    between atoms: _330  and  _332
REMARK  121  A    between atoms: _332  and  _333
REMARK  122  A    between atoms: _335  and  _337
REMARK  123  A    between atoms: _337  and  _338
REMARK  124  A    between atoms: _337  and  _340
REMARK  125  A    between atoms: _340  and  _341
REMARK  126  A    between atoms: _344  and  _346
REMARK  127  A    between atoms: _346  and  _347
REMARK  128  A    between atoms: _346  and  _349
REMARK  129  A    between atoms: _349  and  _350
REMARK  130  A    between atoms: _353  and  _355
REMARK  131  A    between atoms: _355  and  _356
REMARK  132  A    between atoms: _355  and  _358
REMARK  133  A    between atoms: _358  and  _359
REMARK  134  A    between atoms: _359  and  _360
REMARK  135  A    between atoms: _360  and  _361
REMARK  136  A    between atoms: _370  and  _372
REMARK  137  A    between atoms: _372  and  _373
REMARK  138  A    between atoms: _372  and  _375
REMARK  139  A    between atoms: _375  and  _376
REMARK  140  A    between atoms: _379  and  _381
REMARK  141  A    between atoms: _381  and  _382
REMARK  142  A    between atoms: _381  and  _384
REMARK  143  A    between atoms: _384  and  _385
REMARK  144  A    between atoms: _388  and  _390
REMARK  145  A    between atoms: _390  and  _391
REMARK  146  A    between atoms: _394  and  _396
REMARK  147  A    between atoms: _396  and  _397
REMARK  148  A    between atoms: _396  and  _399
REMARK  149  A    between atoms: _399  and  _400
REMARK  150  A    between atoms: _402  and  _404
REMARK  151  A    between atoms: _404  and  _405
REMARK  152  A    between atoms: _404  and  _407
REMARK  153  A    between atoms: _407  and  _408
REMARK  154  A    between atoms: _408  and  _409
REMARK  155  A    between atoms: _409  and  _410
REMARK  156  A    between atoms: _410  and  _411
REMARK  157  A    between atoms: _415  and  _417
REMARK  158  A    between atoms: _417  and  _418
REMARK  159  A    between atoms: _417  and  _420
REMARK  160  A    between atoms: _420  and  _421
REMARK  161  A    between atoms: _426  and  _428
REMARK  162  A    between atoms: _428  and  _429
REMARK  163  A    between atoms: _428  and  _431
REMARK  164  A    between atoms: _431  and  _432
REMARK  165  A    between atoms: _432  and  _433
REMARK  166  A    between atoms: _436  and  _438
REMARK  167  A    between atoms: _438  and  _439
REMARK  168  A    between atoms: _438  and  _441
REMARK  169  A    between atoms: _444  and  _446
REMARK  170  A    between atoms: _446  and  _447
REMARK  171  A    between atoms: _446  and  _449
REMARK  172  A    between atoms: _449  and  _450
REMARK  173  A    between atoms: _453  and  _455
REMARK  174  A    between atoms: _455  and  _456
REMARK  175  A    between atoms: _455  and  _458
REMARK  176  A    between atoms: _458  and  _459
REMARK  177  A    between atoms: _462  and  _464
REMARK  178  A    between atoms: _464  and  _465
REMARK  179  A    between atoms: _464  and  _467
REMARK  180  A    between atoms: _467  and  _468
REMARK  181  A    between atoms: _471  and  _473
REMARK  182  A    between atoms: _473  and  _474
REMARK  183  A    between atoms: _476  and  _478
REMARK  184  A    between atoms: _478  and  _479
REMARK  185  A    between atoms: _478  and  _481
REMARK  186  A    between atoms: _481  and  _482
REMARK  187  A    between atoms: _482  and  _483
REMARK  188  A    between atoms: _486  and  _488
REMARK  189  A    between atoms: _488  and  _489
REMARK  190  A    between atoms: _488  and  _491
REMARK  191  A    between atoms: _491  and  _492
REMARK  192  A    between atoms: _495  and  _497
REMARK  193  A    between atoms: _497  and  _498
REMARK  194  A    between atoms: _497  and  _500
REMARK  195  A    between atoms: _500  and  _501
REMARK  196  A    between atoms: _507  and  _509
REMARK  197  A    between atoms: _509  and  _510
REMARK  198  A    between atoms: _509  and  _512
REMARK  199  A    between atoms: _512  and  _513
REMARK  200  A    between atoms: _518  and  _520
REMARK  201  A    between atoms: _520  and  _521
REMARK  202  A    between atoms: _520  and  _523
REMARK  203  A    between atoms: _523  and  _524
REMARK  204  A    between atoms: _529  and  _531
REMARK  205  A    between atoms: _531  and  _532
REMARK  206  A    between atoms: _531  and  _534
REMARK  207  A    between atoms: _534  and  _535
REMARK  208  A    between atoms: _538  and  _540
REMARK  209  A    between atoms: _540  and  _541
REMARK  210  A    between atoms: _540  and  _543
REMARK  211  A    between atoms: _543  and  _544
REMARK  212  A    between atoms: _549  and  _551
REMARK  213  A    between atoms: _551  and  _552
REMARK  214  A    between atoms: _551  and  _554
REMARK  215  A    between atoms: _554  and  _555
REMARK  216  A    between atoms: _555  and  _556
REMARK  217  A    between atoms: _556  and  _557
REMARK  218  A    between atoms: _566  and  _568
REMARK  219  A    between atoms: _568  and  _569
REMARK  220  A    between atoms: _571  and  _573
REMARK  221  A    between atoms: _573  and  _574
REMARK  222  A    between atoms: _573  and  _576
REMARK  223  A    between atoms: _576  and  _577
REMARK  224  A    between atoms: _582  and  _584
REMARK  225  A    between atoms: _584  and  _585
REMARK  226  A    between atoms: _587  and  _589
REMARK  227  A    between atoms: _589  and  _590
REMARK  228  A    between atoms: _593  and  _595
REMARK  229  A    between atoms: _595  and  _596
REMARK  230  A    between atoms: _598  and  _600
REMARK  231  A    between atoms: _600  and  _601
REMARK  232  A    between atoms: _600  and  _603
REMARK  233  A    between atoms: _603  and  _604
REMARK  234  A    between atoms: _604  and  _605
REMARK  235  A    between atoms: _605  and  _606
REMARK  236  A    between atoms: _615  and  _617
REMARK  237  A    between atoms: _617  and  _618
REMARK  238  A    between atoms: _617  and  _620
REMARK  239  A    between atoms: _620  and  _621
REMARK  240  A    between atoms: _624  and  _626
REMARK  241  A    between atoms: _626  and  _627
REMARK  242  A    between atoms: _626  and  _629
REMARK  243  A    between atoms: _629  and  _630
REMARK                            x       y       z     vdW  Elec       q    Type
REMARK                         _______ _______ _______ _____ _____    ______ ____
ROOT
ATOM      1  CA  HIS A   3       0.004  38.023  13.580  0.00  0.00    +0.155 C 
ENDROOT
BRANCH   1   3
ATOM      2  C   GLY A   2       0.259  35.785  12.684  0.00  0.00    +0.243 C 
ATOM      3  N   HIS A   3       0.687  36.737  13.532  0.00  0.00    -0.297 N 
ATOM      4  H   HIS A   3       1.503  36.556  14.151  0.00  0.00    +0.150 HD
ATOM      5  O   GLY A   2      -0.812  35.879  12.067  0.00  0.00    -0.273 OA
BRANCH   2   6
ATOM      6  CA  GLY A   2       1.104  34.526  12.512  0.00  0.00    +0.176 C 
BRANCH   6   9
ATOM      7  C   ARG A   1       1.863  33.848  14.696  0.00  0.00    +0.238 C 
ATOM      8  O   ARG A   1       0.673  33.785  15.053  0.00  0.00    -0.274 OA
ATOM      9  N   GLY A   2       2.162  34.296  13.482  0.00  0.00    -0.296 N 
ATOM     10  H   GLY A   2       3.153  34.482  13.225  0.00  0.00    +0.150 HD
BRANCH   7  11
ATOM     11  CA  ARG A   1       3.037  33.492  15.617  0.00  0.00    +0.145 C 
BRANCH  11  12
ATOM     12  N   ARG A   1       4.243  34.182  15.182  0.00  0.00    -0.238 NA
ATOM     13  H   ARG A   1       4.200  35.218  15.102  0.00  0.00    +0.142 HD
ENDBRANCH  11  12
BRANCH  11  14
ATOM     14  CB  ARG A   1       2.676  33.869  17.061  0.00  0.00    +0.030 C 
BRANCH  14  15
ATOM     15  CG  ARG A   1       2.806  35.359  17.373  0.00  0.00    +0.045 C 
BRANCH  15  16
ATOM     16  CD  ARG A   1       2.299  35.711  18.761  0.00  0.00    +0.174 C 
BRANCH  16  17
ATOM     17  NE  ARG A   1       2.821  34.872  19.818  0.00  0.00    -0.265 N 
ATOM     18  HE  ARG A   1       2.156  34.221  20.282  0.00  0.00    +0.259 HD
ATOM     19  CZ  ARG A   1       4.096  34.864  20.251  0.00  0.00    +0.342 C 
ATOM     20  NH2 ARG A   1       4.454  34.008  21.215  0.00  0.00    -0.292 N 
ATOM     21 HH21 ARG A   1       3.751  33.359  21.621  0.00  0.00    +0.255 HD
ATOM     22 HH22 ARG A   1       5.436  33.992  21.558  0.00  0.00    +0.255 HD
ATOM     23  NH1 ARG A   1       5.033  35.663  19.720  0.00  0.00    -0.292 N 
ATOM     24 HH11 ARG A   1       6.008  35.630  20.079  0.00  0.00    +0.255 HD
ATOM     25 HH12 ARG A   1       4.784  36.315  18.949  0.00  0.00    +0.255 HD
ENDBRANCH  16  17
ENDBRANCH  15  16
ENDBRANCH  14  15
ENDBRANCH  11  14
ENDBRANCH   7  11
ENDBRANCH   6   9
ENDBRANCH   2   6
ENDBRANCH   1   3
BRANCH   1  26
ATOM     26  C   HIS A   3       0.670  38.972  12.575  0.00  0.00    +0.241 C 
ATOM     27  N   GLY A   4       0.134  40.171  12.332  0.00  0.00    -0.295 N 
ATOM     28  H   GLY A   4      -0.732  40.437  12.843  0.00  0.00    +0.150 HD
ATOM     29  O   HIS A   3       1.652  38.592  11.927  0.00  0.00    -0.273 OA
BRANCH  27  30
ATOM     30  CA  GLY A   4       0.701  41.127  11.387  0.00  0.00    +0.176 C 
BRANCH  30  31
ATOM     31  C   GLY A   4       0.626  40.623   9.947  0.00  0.00    +0.243 C 
ATOM     32  O   GLY A   4      -0.420  40.291   9.388  0.00  0.00    -0.273 OA
ATOM     33  N   ALA A   5       1.798  40.626   9.352  0.00  0.00    -0.297 N 
ATOM     34  H   ALA A   5       2.613  40.990   9.886  0.00  0.00    +0.150 HD
BRANCH  33  35
ATOM     35  CA  ALA A   5       2.030  40.157   8.005  0.00  0.00    +0.149 C 
ATOM     36  CB  ALA A   5       1.949  41.296   6.982  0.00  0.00    +0.031 C 
BRANCH  35  37
ATOM     37  C   ALA A   5       3.451  39.565   7.935  0.00  0.00    +0.241 C 
ATOM     38  O   ALA A   5       4.395  39.923   8.662  0.00  0.00    -0.273 OA
ATOM     39  N   GLY A   6       3.530  38.602   7.027  0.00  0.00    -0.296 N 
ATOM     40  H   GLY A   6       2.666  38.385   6.489  0.00  0.00    +0.150 HD
BRANCH  39  41
ATOM     41  CA  GLY A   6       4.704  37.831   6.720  0.00  0.00    +0.163 C 
BRANCH  41  42
ATOM     42  C   GLY A   6       4.156  36.510   6.197  0.00  0.00    +0.229 C 
ATOM     43  O   GLY A   6       4.601  35.996   5.157  0.00  0.00    -0.286 OA
ENDBRANCH  41  42
ENDBRANCH  39  41
ENDBRANCH  35  37
ENDBRANCH  33  35
ENDBRANCH  30  31
ENDBRANCH  27  30
ENDBRANCH   1  26
BRANCH   1  44
ATOM     44  CB  HIS A   3       0.066  38.595  14.995  0.00  0.00    +0.076 C 
BRANCH  44  45
ATOM     45  CG  HIS A   3      -0.958  37.993  15.947  0.00  0.00    +0.082 A 
ATOM     46  ND1 HIS A   3      -1.887  38.665  16.615  0.00  0.00    -0.227 NA
ATOM     47  CE1 HIS A   3      -2.528  37.819  17.382  0.00  0.00    +0.199 A 
ATOM     48  NE2 HIS A   3      -2.018  36.632  17.198  0.00  0.00    -0.221 NA
ATOM     49  CD2 HIS A   3      -1.048  36.673  16.321  0.00  0.00    +0.115 A 
ENDBRANCH  44  45
ENDBRANCH   1  44
TORSDOF 18
REMARK  Name = ../refined-set-2016/1ppi/1ppi_pocket.pdb
REMARK  243 active torsions:
REMARK  status: ('A' for Active; 'I' for Inactive)
REMARK    1  A    between atoms: _1  and  _3
REMARK    2  A    between atoms: _3  and  _4
REMARK    3  A    between atoms: _3  and  _6
REMARK    4  A    between atoms: _6  and  _7
REMARK    5  A    between atoms: _12  and  _14
REMARK    6  A    between atoms: _14  and  _15
REMARK    7  A    between atoms: _14  and  _17
REMARK    8  A    between atoms: _17  and  _18
REMARK    9  A    between atoms: _24  and  _26
REMARK   10  A    between atoms: _26  and  _27
REMARK   11  A    between atoms: _26  and  _29
REMARK   12  A    between atoms: _29  and  _30
REMARK   13  A    between atoms: _30  and  _31
REMARK   14  A    between atoms: _37  and  _38
REMARK   15  A    between atoms: _43  and  _45
REMARK   16  A    between atoms: _45  and  _46
REMARK   17  A    between atoms: _45  and  _48
REMARK   18  A    between atoms: _48  and  _49
REMARK   19  A    between atoms: _54  and  _56
REMARK   20  A    between atoms: _56  and  _57
REMARK   21  A    between atoms: _56  and  _59
REMARK   22  A    between atoms: _62  and  _64
REMARK   23  A    between atoms: _64  and  _65
REMARK   24  A    between atoms: _64  and  _67
REMARK   25  A    between atoms: _71  and  _72
REMARK   26  A    between atoms: _78  and  _79
REMARK   27  A    between atoms: _84  and  _86
REMARK   28  A    between atoms: _86  and  _87
REMARK   29  A    between atoms: _86  and  _89
REMARK   30  A    between atoms: _89  and  _90
REMARK   31  A    between atoms: _100  and  _102
REMARK   32  A    between atoms: _102  and  _103
REMARK   33  A    between atoms: _102  and  _105
REMARK   34  A    between atoms: _105  and  _106
REMARK   35  A    between atoms: _116  and  _118
REMARK   36  A    between atoms: _118  and  _119
REMARK   37  A    between atoms: _118  and  _121
REMARK   38  A    between atoms: _121  and  _122
REMARK   39  A    between atoms: _122  and  _123
REMARK   40  A    between atoms: _126  and  _128
REMARK   41  A    between atoms: _128  and  _129
REMARK   42  A    between atoms: _128  and  _131
REMARK   43  A    between atoms: _131  and  _132
REMARK   44  A    between atoms: _132  and  _133
REMARK   45  A    between atoms: _133  and  _134
REMARK   46  A    between atoms: _143  and  _145
REMARK   47  A    between atoms: _145  and  _146
REMARK   48  A    between atoms: _145  and  _148
REMARK   49  A    between atoms: _148  and  _149
REMARK   50  A    between atoms: _154  and  _155
REMARK   51  A    between atoms: _157  and  _159
REMARK   52  A    between atoms: _159  and  _160
REMARK   53  A    between atoms: _159  and  _162
REMARK   54  A    between atoms: _162  and  _163
REMARK   55  A    between atoms: _163  and  _164
REMARK   56  A    between atoms: _170  and  _171
REMARK   57  A    between atoms: _176  and  _178
REMARK   58  A    between atoms: _178  and  _179
REMARK   59  A    between atoms: _178  and  _181
REMARK   60  A    between atoms: _181  and  _182
REMARK   61  A    between atoms: _185  and  _187
REMARK   62  A    between atoms: _187  and  _188
REMARK   63  A    between atoms: _191  and  _193
REMARK   64  A    between atoms: _193  and  _194
REMARK   65  A    between atoms: _193  and  _196
REMARK   66  A    between atoms: _199  and  _201
REMARK   67  A    between atoms: _201  and  _202
REMARK   68  A    between atoms: _201  and  _204
REMARK   69  A    between atoms: _204  and  _205
REMARK   70  A    between atoms: _208  and  _210
REMARK   71  A    between atoms: _210  and  _211
REMARK   72  A    between atoms: _210  and  _213
REMARK   73  A    between atoms: _213  and  _214
REMARK   74  A    between atoms: _219  and  _221
REMARK   75  A    between atoms: _221  and  _222
REMARK   76  A    between atoms: _221  and  _224
REMARK   77  A    between atoms: _224  and  _225
REMARK   78  A    between atoms: _230  and  _232
REMARK   79  A    between atoms: _232  and  _233
REMARK   80  A    between atoms: _232  and  _235
REMARK   81  A    between atoms: _235  and  _236
REMARK   82  A    between atoms: _236  and  _237
REMARK   83  A    between atoms: _239  and  _241
REMARK   84  A    between atoms: _241  and  _242
REMARK   85  A    between atoms: _241  and  _244
REMARK   86  A    between atoms: _246  and  _248
REMARK   87  A    between atoms: _248  and  _249
REMARK   88  A    between atoms: _251  and  _253
REMARK   89  A    between atoms: _253  and  _254
REMARK   90  A    between atoms: _253  and  _256
REMARK   91  A    between atoms: _256  and  _257
REMARK   92  A    between atoms: _259  and  _261
REMARK   93  A    between atoms: _261  and  _262
REMARK   94  A    between atoms: _264  and  _266
REMARK   95  A    between atoms: _266  and  _267
REMARK   96  A    between atoms: _270  and  _272
REMARK   97  A    between atoms: _272  and  _273
REMARK   98  A    between atoms: _272  and  _275
REMARK   99  A    between atoms: _275  and  _276
REMARK  100  A    between atoms: _279  and  _281
REMARK  101  A    between atoms: _281  and  _282
REMARK  102  A    between atoms: _281  and  _284
REMARK  103  A    between atoms: _284  and  _285
REMARK  104  A    between atoms: _290  and  _291
REMARK  105  A    between atoms: _293  and  _295
REMARK  106  A    between atoms: _295  and  _296
REMARK  107  A    between atoms: _295  and  _298
REMARK  108  A    between atoms: _301  and  _303
REMARK  109  A    between atoms: _303  and  _304
REMARK  110  A    between atoms: _303  and  _306
REMARK  111  A    between atoms: _306  and  _307
REMARK  112  A    between atoms: _307  and  _308
REMARK  113  A    between atoms: _313  and  _315
REMARK  114  A    between atoms: _315  and  _316
REMARK  115  A    between atoms: _315  and  _318
REMARK  116  A    between atoms: _318  and  _319
REMARK  117  A    between atoms: _322  and  _324
REMARK  118  A    between atoms: _324  and  _325
REMARK  119  A    between atoms: _324  and  _327
REMARK  120  A    between atoms: _330  and  _332
REMARK  121  A    between atoms: _332  and  _333
REMARK  122  A    between atoms: _335  and  _337
REMARK  123  A    between atoms: _337  and  _338
REMARK  124  A    between atoms: _337  and  _340
REMARK  125  A    between atoms: _340  and  _341
REMARK  126  A    between atoms: _344  and  _346
REMARK  127  A    between atoms: _346  and  _347
REMARK  128  A    between atoms: _346  and  _349
REMARK  129  A    between atoms: _349  and  _350
REMARK  130  A    between atoms: _353  and  _355
REMARK  131  A    between atoms: _355  and  _356
REMARK  132  A    between atoms: _355  and  _358
REMARK  133  A    between atoms: _358  and  _359
REMARK  134  A    between atoms: _359  and  _360
REMARK  135  A    between atoms: _360  and  _361
REMARK  136  A    between atoms: _370  and  _372
REMARK  137  A    between atoms: _372  and  _373
REMARK  138  A    between atoms: _372  and  _375
REMARK  139  A    between atoms: _375  and  _376
REMARK  140  A    between atoms: _379  and  _381
REMARK  141  A    between atoms: _381  and  _382
REMARK  142  A    between atoms: _381  and  _384
REMARK  143  A    between atoms: _384  and  _385
REMARK  144  A    between atoms: _388  and  _390
REMARK  145  A    between atoms: _390  and  _391
REMARK  146  A    between atoms: _394  and  _396
REMARK  147  A    between atoms: _396  and  _397
REMARK  148  A    between atoms: _396  and  _399
REMARK  149  A    between atoms: _399  and  _400
REMARK  150  A    between atoms: _402  and  _404
REMARK  151  A    between atoms: _404  and  _405
REMARK  152  A    between atoms: _404  and  _407
REMARK  153  A    between atoms: _407  and  _408
REMARK  154  A    between atoms: _408  and  _409
REMARK  155  A    between atoms: _409  and  _410
REMARK  156  A    between atoms: _410  and  _411
REMARK  157  A    between atoms: _415  and  _417
REMARK  158  A    between atoms: _417  and  _418
REMARK  159  A    between atoms: _417  and  _420
REMARK  160  A    between atoms: _420  and  _421
REMARK  161  A    between atoms: _426  and  _428
REMARK  162  A    between atoms: _428  and  _429
REMARK  163  A    between atoms: _428  and  _431
REMARK  164  A    between atoms: _431  and  _432
REMARK  165  A    between atoms: _432  and  _433
REMARK  166  A    between atoms: _436  and  _438
REMARK  167  A    between atoms: _438  and  _439
REMARK  168  A    between atoms: _438  and  _441
REMARK  169  A    between atoms: _444  and  _446
REMARK  170  A    between atoms: _446  and  _447
REMARK  171  A    between atoms: _446  and  _449
REMARK  172  A    between atoms: _449  and  _450
REMARK  173  A    between atoms: _453  and  _455
REMARK  174  A    between atoms: _455  and  _456
REMARK  175  A    between atoms: _455  and  _458
REMARK  176  A    between atoms: _458  and  _459
REMARK  177  A    between atoms: _462  and  _464
REMARK  178  A    between atoms: _464  and  _465
REMARK  179  A    between atoms: _464  and  _467
REMARK  180  A    between atoms: _467  and  _468
REMARK  181  A    between atoms: _471  and  _473
REMARK  182  A    between atoms: _473  and  _474
REMARK  183  A    between atoms: _476  and  _478
REMARK  184  A    between atoms: _478  and  _479
REMARK  185  A    between atoms: _478  and  _481
REMARK  186  A    between atoms: _481  and  _482
REMARK  187  A    between atoms: _482  and  _483
REMARK  188  A    between atoms: _486  and  _488
REMARK  189  A    between atoms: _488  and  _489
REMARK  190  A    between atoms: _488  and  _491
REMARK  191  A    between atoms: _491  and  _492
REMARK  192  A    between atoms: _495  and  _497
REMARK  193  A    between atoms: _497  and  _498
REMARK  194  A    between atoms: _497  and  _500
REMARK  195  A    between atoms: _500  and  _501
REMARK  196  A    between atoms: _507  and  _509
REMARK  197  A    between atoms: _509  and  _510
REMARK  198  A    between atoms: _509  and  _512
REMARK  199  A    between atoms: _512  and  _513
REMARK  200  A    between atoms: _518  and  _520
REMARK  201  A    between atoms: _520  and  _521
REMARK  202  A    between atoms: _520  and  _523
REMARK  203  A    between atoms: _523  and  _524
REMARK  204  A    between atoms: _529  and  _531
REMARK  205  A    between atoms: _531  and  _532
REMARK  206  A    between atoms: _531  and  _534
REMARK  207  A    between atoms: _534  and  _535
REMARK  208  A    between atoms: _538  and  _540
REMARK  209  A    between atoms: _540  and  _541
REMARK  210  A    between atoms: _540  and  _543
REMARK  211  A    between atoms: _543  and  _544
REMARK  212  A    between atoms: _549  and  _551
REMARK  213  A    between atoms: _551  and  _552
REMARK  214  A    between atoms: _551  and  _554
REMARK  215  A    between atoms: _554  and  _555
REMARK  216  A    between atoms: _555  and  _556
REMARK  217  A    between atoms: _556  and  _557
REMARK  218  A    between atoms: _566  and  _568
REMARK  219  A    between atoms: _568  and  _569
REMARK  220  A    between atoms: _571  and  _573
REMARK  221  A    between atoms: _573  and  _574
REMARK  222  A    between atoms: _573  and  _576
REMARK  223  A    between atoms: _576  and  _577
REMARK  224  A    between atoms: _582  and  _584
REMARK  225  A    between atoms: _584  and  _585
REMARK  226  A    between atoms: _587  and  _589
REMARK  227  A    between atoms: _589  and  _590
REMARK  228  A    between atoms: _593  and  _595
REMARK  229  A    between atoms: _595  and  _596
REMARK  230  A    between atoms: _598  and  _600
REMARK  231  A    between atoms: _600  and  _601
REMARK  232  A    between atoms: _600  and  _603
REMARK  233  A    between atoms: _603  and  _604
REMARK  234  A    between atoms: _604  and  _605
REMARK  235  A    between atoms: _605  and  _606
REMARK  236  A    between atoms: _615  and  _617
REMARK  237  A    between atoms: _617  and  _618
REMARK  238  A    between atoms: _617  and  _620
REMARK  239  A    between atoms: _620  and  _621
REMARK  240  A    between atoms: _624  and  _626
REMARK  241  A    between atoms: _626  and  _627
REMARK  242  A    between atoms: _626  and  _629
REMARK  243  A    between atoms: _629  and  _630
REMARK                            x       y       z     vdW  Elec       q    Type
REMARK                         _______ _______ _______ _____ _____    ______ ____
ROOT
ATOM      1  NE  ARG A   1      13.004  43.961  15.599  0.00  0.00    -0.265 N 
ATOM      2  CZ  ARG A   1      11.842  44.576  15.322  0.00  0.00    +0.342 C 
ATOM      3  NH2 ARG A   1      11.339  45.609  16.007  0.00  0.00    -0.292 N 
ATOM      4 HH21 ARG A   1      11.857  45.994  16.822  0.00  0.00    +0.255 HD
ATOM      5 HH22 ARG A   1      10.430  46.027  15.724  0.00  0.00    +0.255 HD
ATOM      6  NH1 ARG A   1      11.124  44.146  14.303  0.00  0.00    -0.292 N 
ATOM      7 HH11 ARG A   1      10.221  44.608  14.071  0.00  0.00    +0.255 HD
ATOM      8 HH12 ARG A   1      11.460  43.345  13.731  0.00  0.00    +0.255 HD
ATOM      9  HE  ARG A   1      13.321  43.189  14.979  0.00  0.00    +0.259 HD
ENDROOT
BRANCH   1  10
ATOM     10  CD  ARG A   1      13.838  44.333  16.734  0.00  0.00    +0.174 C 
BRANCH  10  11
ATOM     11  CG  ARG A   1      15.231  43.746  16.617  0.00  0.00    +0.045 C 
BRANCH  11  12
ATOM     12  CB  ARG A   1      15.913  44.135  15.260  0.00  0.00    +0.029 C 
BRANCH  12  13
ATOM     13  CA  ARG A   1      17.291  43.489  15.087  0.00  0.00    +0.133 C 
BRANCH  13  14
ATOM     14  N   ARG A   1      17.943  43.884  13.845  0.00  0.00    -0.239 NA
ATOM     15  H   ARG A   1      17.445  43.727  12.946  0.00  0.00    +0.142 HD
ENDBRANCH  13  14
BRANCH  13  16
ATOM     16  C   ARG A   1      17.102  41.974  15.138  0.00  0.00    +0.224 C 
ATOM     17  O   ARG A   1      16.506  41.345  14.251  0.00  0.00    -0.287 OA
ENDBRANCH  13  16
ENDBRANCH  12  13
ENDBRANCH  11  12
ENDBRANCH  10  11
ENDBRANCH   1  10
TORSDOF 6
REMARK  Name = ../refined-set-2016/1ppi/1ppi_pocket.pdb
REMARK  243 active torsions:
REMARK  status: ('A' for Active; 'I' for Inactive)
REMARK    1  A    between atoms: _1  and  _3
REMARK    2  A    between atoms: _3  and  _4
REMARK    3  A    between atoms: _3  and  _6
REMARK    4  A    between atoms: _6  and  _7
REMARK    5  A    between atoms: _12  and  _14
REMARK    6  A    between atoms: _14  and  _15
REMARK    7  A    between atoms: _14  and  _17
REMARK    8  A    between atoms: _17  and  _18
REMARK    9  A    between atoms: _24  and  _26
REMARK   10  A    between atoms: _26  and  _27
REMARK   11  A    between atoms: _26  and  _29
REMARK   12  A    between atoms: _29  and  _30
REMARK   13  A    between atoms: _30  and  _31
REMARK   14  A    between atoms: _37  and  _38
REMARK   15  A    between atoms: _43  and  _45
REMARK   16  A    between atoms: _45  and  _46
REMARK   17  A    between atoms: _45  and  _48
REMARK   18  A    between atoms: _48  and  _49
REMARK   19  A    between atoms: _54  and  _56
REMARK   20  A    between atoms: _56  and  _57
REMARK   21  A    between atoms: _56  and  _59
REMARK   22  A    between atoms: _62  and  _64
REMARK   23  A    between atoms: _64  and  _65
REMARK   24  A    between atoms: _64  and  _67
REMARK   25  A    between atoms: _71  and  _72
REMARK   26  A    between atoms: _78  and  _79
REMARK   27  A    between atoms: _84  and  _86
REMARK   28  A    between atoms: _86  and  _87
REMARK   29  A    between atoms: _86  and  _89
REMARK   30  A    between atoms: _89  and  _90
REMARK   31  A    between atoms: _100  and  _102
REMARK   32  A    between atoms: _102  and  _103
REMARK   33  A    between atoms: _102  and  _105
REMARK   34  A    between atoms: _105  and  _106
REMARK   35  A    between atoms: _116  and  _118
REMARK   36  A    between atoms: _118  and  _119
REMARK   37  A    between atoms: _118  and  _121
REMARK   38  A    between atoms: _121  and  _122
REMARK   39  A    between atoms: _122  and  _123
REMARK   40  A    between atoms: _126  and  _128
REMARK   41  A    between atoms: _128  and  _129
REMARK   42  A    between atoms: _128  and  _131
REMARK   43  A    between atoms: _131  and  _132
REMARK   44  A    between atoms: _132  and  _133
REMARK   45  A    between atoms: _133  and  _134
REMARK   46  A    between atoms: _143  and  _145
REMARK   47  A    between atoms: _145  and  _146
REMARK   48  A    between atoms: _145  and  _148
REMARK   49  A    between atoms: _148  and  _149
REMARK   50  A    between atoms: _154  and  _155
REMARK   51  A    between atoms: _157  and  _159
REMARK   52  A    between atoms: _159  and  _160
REMARK   53  A    between atoms: _159  and  _162
REMARK   54  A    between atoms: _162  and  _163
REMARK   55  A    between atoms: _163  and  _164
REMARK   56  A    between atoms: _170  and  _171
REMARK   57  A    between atoms: _176  and  _178
REMARK   58  A    between atoms: _178  and  _179
REMARK   59  A    between atoms: _178  and  _181
REMARK   60  A    between atoms: _181  and  _182
REMARK   61  A    between atoms: _185  and  _187
REMARK   62  A    between atoms: _187  and  _188
REMARK   63  A    between atoms: _191  and  _193
REMARK   64  A    between atoms: _193  and  _194
REMARK   65  A    between atoms: _193  and  _196
REMARK   66  A    between atoms: _199  and  _201
REMARK   67  A    between atoms: _201  and  _202
REMARK   68  A    between atoms: _201  and  _204
REMARK   69  A    between atoms: _204  and  _205
REMARK   70  A    between atoms: _208  and  _210
REMARK   71  A    between atoms: _210  and  _211
REMARK   72  A    between atoms: _210  and  _213
REMARK   73  A    between atoms: _213  and  _214
REMARK   74  A    between atoms: _219  and  _221
REMARK   75  A    between atoms: _221  and  _222
REMARK   76  A    between atoms: _221  and  _224
REMARK   77  A    between atoms: _224  and  _225
REMARK   78  A    between atoms: _230  and  _232
REMARK   79  A    between atoms: _232  and  _233
REMARK   80  A    between atoms: _232  and  _235
REMARK   81  A    between atoms: _235  and  _236
REMARK   82  A    between atoms: _236  and  _237
REMARK   83  A    between atoms: _239  and  _241
REMARK   84  A    between atoms: _241  and  _242
REMARK   85  A    between atoms: _241  and  _244
REMARK   86  A    between atoms: _246  and  _248
REMARK   87  A    between atoms: _248  and  _249
REMARK   88  A    between atoms: _251  and  _253
REMARK   89  A    between atoms: _253  and  _254
REMARK   90  A    between atoms: _253  and  _256
REMARK   91  A    between atoms: _256  and  _257
REMARK   92  A    between atoms: _259  and  _261
REMARK   93  A    between atoms: _261  and  _262
REMARK   94  A    between atoms: _264  and  _266
REMARK   95  A    between atoms: _266  and  _267
REMARK   96  A    between atoms: _270  and  _272
REMARK   97  A    between atoms: _272  and  _273
REMARK   98  A    between atoms: _272  and  _275
REMARK   99  A    between atoms: _275  and  _276
REMARK  100  A    between atoms: _279  and  _281
REMARK  101  A    between atoms: _281  and  _282
REMARK  102  A    between atoms: _281  and  _284
REMARK  103  A    between atoms: _284  and  _285
REMARK  104  A    between atoms: _290  and  _291
REMARK  105  A    between atoms: _293  and  _295
REMARK  106  A    between atoms: _295  and  _296
REMARK  107  A    between atoms: _295  and  _298
REMARK  108  A    between atoms: _301  and  _303
REMARK  109  A    between atoms: _303  and  _304
REMARK  110  A    between atoms: _303  and  _306
REMARK  111  A    between atoms: _306  and  _307
REMARK  112  A    between atoms: _307  and  _308
REMARK  113  A    between atoms: _313  and  _315
REMARK  114  A    between atoms: _315  and  _316
REMARK  115  A    between atoms: _315  and  _318
REMARK  116  A    between atoms: _318  and  _319
REMARK  117  A    between atoms: _322  and  _324
REMARK  118  A    between atoms: _324  and  _325
REMARK  119  A    between atoms: _324  and  _327
REMARK  120  A    between atoms: _330  and  _332
REMARK  121  A    between atoms: _332  and  _333
REMARK  122  A    between atoms: _335  and  _337
REMARK  123  A    between atoms: _337  and  _338
REMARK  124  A    between atoms: _337  and  _340
REMARK  125  A    between atoms: _340  and  _341
REMARK  126  A    between atoms: _344  and  _346
REMARK  127  A    between atoms: _346  and  _347
REMARK  128  A    between atoms: _346  and  _349
REMARK  129  A    between atoms: _349  and  _350
REMARK  130  A    between atoms: _353  and  _355
REMARK  131  A    between atoms: _355  and  _356
REMARK  132  A    between atoms: _355  and  _358
REMARK  133  A    between atoms: _358  and  _359
REMARK  134  A    between atoms: _359  and  _360
REMARK  135  A    between atoms: _360  and  _361
REMARK  136  A    between atoms: _370  and  _372
REMARK  137  A    between atoms: _372  and  _373
REMARK  138  A    between atoms: _372  and  _375
REMARK  139  A    between atoms: _375  and  _376
REMARK  140  A    between atoms: _379  and  _381
REMARK  141  A    between atoms: _381  and  _382
REMARK  142  A    between atoms: _381  and  _384
REMARK  143  A    between atoms: _384  and  _385
REMARK  144  A    between atoms: _388  and  _390
REMARK  145  A    between atoms: _390  and  _391
REMARK  146  A    between atoms: _394  and  _396
REMARK  147  A    between atoms: _396  and  _397
REMARK  148  A    between atoms: _396  and  _399
REMARK  149  A    between atoms: _399  and  _400
REMARK  150  A    between atoms: _402  and  _404
REMARK  151  A    between atoms: _404  and  _405
REMARK  152  A    between atoms: _404  and  _407
REMARK  153  A    between atoms: _407  and  _408
REMARK  154  A    between atoms: _408  and  _409
REMARK  155  A    between atoms: _409  and  _410
REMARK  156  A    between atoms: _410  and  _411
REMARK  157  A    between atoms: _415  and  _417
REMARK  158  A    between atoms: _417  and  _418
REMARK  159  A    between atoms: _417  and  _420
REMARK  160  A    between atoms: _420  and  _421
REMARK  161  A    between atoms: _426  and  _428
REMARK  162  A    between atoms: _428  and  _429
REMARK  163  A    between atoms: _428  and  _431
REMARK  164  A    between atoms: _431  and  _432
REMARK  165  A    between atoms: _432  and  _433
REMARK  166  A    between atoms: _436  and  _438
REMARK  167  A    between atoms: _438  and  _439
REMARK  168  A    between atoms: _438  and  _441
REMARK  169  A    between atoms: _444  and  _446
REMARK  170  A    between atoms: _446  and  _447
REMARK  171  A    between atoms: _446  and  _449
REMARK  172  A    between atoms: _449  and  _450
REMARK  173  A    between atoms: _453  and  _455
REMARK  174  A    between atoms: _455  and  _456
REMARK  175  A    between atoms: _455  and  _458
REMARK  176  A    between atoms: _458  and  _459
REMARK  177  A    between atoms: _462  and  _464
REMARK  178  A    between atoms: _464  and  _465
REMARK  179  A    between atoms: _464  and  _467
REMARK  180  A    between atoms: _467  and  _468
REMARK  181  A    between atoms: _471  and  _473
REMARK  182  A    between atoms: _473  and  _474
REMARK  183  A    between atoms: _476  and  _478
REMARK  184  A    between atoms: _478  and  _479
REMARK  185  A    between atoms: _478  and  _481
REMARK  186  A    between atoms: _481  and  _482
REMARK  187  A    between atoms: _482  and  _483
REMARK  188  A    between atoms: _486  and  _488
REMARK  189  A    between atoms: _488  and  _489
REMARK  190  A    between atoms: _488  and  _491
REMARK  191  A    between atoms: _491  and  _492
REMARK  192  A    between atoms: _495  and  _497
REMARK  193  A    between atoms: _497  and  _498
REMARK  194  A    between atoms: _497  and  _500
REMARK  195  A    between atoms: _500  and  _501
REMARK  196  A    between atoms: _507  and  _509
REMARK  197  A    between atoms: _509  and  _510
REMARK  198  A    between atoms: _509  and  _512
REMARK  199  A    between atoms: _512  and  _513
REMARK  200  A    between atoms: _518  and  _520
REMARK  201  A    between atoms: _520  and  _521
REMARK  202  A    between atoms: _520  and  _523
REMARK  203  A    between atoms: _523  and  _524
REMARK  204  A    between atoms: _529  and  _531
REMARK  205  A    between atoms: _531  and  _532
REMARK  206  A    between atoms: _531  and  _534
REMARK  207  A    between atoms: _534  and  _535
REMARK  208  A    between atoms: _538  and  _540
REMARK  209  A    between atoms: _540  and  _541
REMARK  210  A    between atoms: _540  and  _543
REMARK  211  A    between atoms: _543  and  _544
REMARK  212  A    between atoms: _549  and  _551
REMARK  213  A    between atoms: _551  and  _552
REMARK  214  A    between atoms: _551  and  _554
REMARK  215  A    between atoms: _554  and  _555
REMARK  216  A    between atoms: _555  and  _556
REMARK  217  A    between atoms: _556  and  _557
REMARK  218  A    between atoms: _566  and  _568
REMARK  219  A    between atoms: _568  and  _569
REMARK  220  A    between atoms: _571  and  _573
REMARK  221  A    between atoms: _573  and  _574
REMARK  222  A    between atoms: _573  and  _576
REMARK  223  A    between atoms: _576  and  _577
REMARK  224  A    between atoms: _582  and  _584
REMARK  225  A    between atoms: _584  and  _585
REMARK  226  A    between atoms: _587  and  _589
REMARK  227  A    between atoms: _589  and  _590
REMARK  228  A    between atoms: _593  and  _595
REMARK  229  A    between atoms: _595  and  _596
REMARK  230  A    between atoms: _598  and  _600
REMARK  231  A    between atoms: _600  and  _601
REMARK  232  A    between atoms: _600  and  _603
REMARK  233  A    between atoms: _603  and  _604
REMARK  234  A    between atoms: _604  and  _605
REMARK  235  A    between atoms: _605  and  _606
REMARK  236  A    between atoms: _615  and  _617
REMARK  237  A    between atoms: _617  and  _618
REMARK  238  A    between atoms: _617  and  _620
REMARK  239  A    between atoms: _620  and  _621
REMARK  240  A    between atoms: _624  and  _626
REMARK  241  A    between atoms: _626  and  _627
REMARK  242  A    between atoms: _626  and  _629
REMARK  243  A    between atoms: _629  and  _630
REMARK                            x       y       z     vdW  Elec       q    Type
REMARK                         _______ _______ _______ _____ _____    ______ ____
ROOT
ATOM      1  CA  TRP A   2      -2.480  34.303  22.144  0.00  0.00    +0.141 C 
ENDROOT
BRANCH   1   3
ATOM      2  C   ASP A   1      -1.247  33.456  20.195  0.00  0.00    +0.239 C 
ATOM      3  N   TRP A   2      -2.205  33.343  21.094  0.00  0.00    -0.298 N 
ATOM      4  H   TRP A   2      -2.811  32.499  21.046  0.00  0.00    +0.150 HD
ATOM      5  O   ASP A   1      -0.614  34.496  20.095  0.00  0.00    -0.274 OA
BRANCH   2   6
ATOM      6  CA  ASP A   1      -1.034  32.310  19.198  0.00  0.00    +0.156 C 
BRANCH   6   7
ATOM      7  N   ASP A   1      -1.948  31.191  19.372  0.00  0.00    -0.238 NA
ATOM      8  H   ASP A   1      -2.674  31.030  18.645  0.00  0.00    +0.142 HD
ENDBRANCH   6   7
BRANCH   6   9
ATOM      9  CB  ASP A   1      -1.180  32.826  17.769  0.00  0.00    +0.140 C 
BRANCH   9  10
ATOM     10  CG  ASP A   1      -2.575  33.262  17.301  0.00  0.00    +0.367 C 
ATOM     11  OD2 ASP A   1      -3.542  33.397  18.065  0.00  0.00    -0.246 OA
ATOM     12  OD1 ASP A   1      -2.693  33.481  16.100  0.00  0.00    -0.246 OA
ENDBRANCH   9  10
ENDBRANCH   6   9
ENDBRANCH   2   6
ENDBRANCH   1   3
BRANCH   1  13
ATOM     13  C   TRP A   2      -1.613  34.070  23.370  0.00  0.00    +0.227 C 
ATOM     14  O   TRP A   2      -1.517  34.963  24.206  0.00  0.00    -0.286 OA
ENDBRANCH   1  13
BRANCH   1  15
ATOM     15  CB  TRP A   2      -3.935  34.210  22.592  0.00  0.00    +0.056 C 
BRANCH  15  16
ATOM     16  CG  TRP A   2      -4.409  32.872  23.196  0.00  0.00    -0.002 A 
ATOM     17  CD2 TRP A   2      -4.265  32.457  24.523  0.00  0.00    +0.013 A 
ATOM     18  CE3 TRP A   2      -3.716  32.974  25.690  0.00  0.00    +0.001 A 
ATOM     19  CZ3 TRP A   2      -3.767  32.232  26.837  0.00  0.00    +0.000 A 
ATOM     20  CH2 TRP A   2      -4.361  30.991  26.817  0.00  0.00    +0.001 A 
ATOM     21  CZ2 TRP A   2      -4.910  30.480  25.648  0.00  0.00    +0.017 A 
ATOM     22  CE2 TRP A   2      -4.862  31.207  24.506  0.00  0.00    +0.056 A 
ATOM     23  NE1 TRP A   2      -5.323  30.912  23.267  0.00  0.00    -0.352 N 
ATOM     24  HE1 TRP A   2      -5.808  30.029  23.011  0.00  0.00    +0.166 HD
ATOM     25  CD1 TRP A   2      -5.070  31.906  22.426  0.00  0.00    +0.068 A 
ENDBRANCH  15  16
ENDBRANCH   1  15
TORSDOF 8
REMARK  Name = ../refined-set-2016/1ppi/1ppi_pocket.pdb
REMARK  243 active torsions:
REMARK  status: ('A' for Active; 'I' for Inactive)
REMARK    1  A    between atoms: _1  and  _3
REMARK    2  A    between atoms: _3  and  _4
REMARK    3  A    between atoms: _3  and  _6
REMARK    4  A    between atoms: _6  and  _7
REMARK    5  A    between atoms: _12  and  _14
REMARK    6  A    between atoms: _14  and  _15
REMARK    7  A    between atoms: _14  and  _17
REMARK    8  A    between atoms: _17  and  _18
REMARK    9  A    between atoms: _24  and  _26
REMARK   10  A    between atoms: _26  and  _27
REMARK   11  A    between atoms: _26  and  _29
REMARK   12  A    between atoms: _29  and  _30
REMARK   13  A    between atoms: _30  and  _31
REMARK   14  A    between atoms: _37  and  _38
REMARK   15  A    between atoms: _43  and  _45
REMARK   16  A    between atoms: _45  and  _46
REMARK   17  A    between atoms: _45  and  _48
REMARK   18  A    between atoms: _48  and  _49
REMARK   19  A    between atoms: _54  and  _56
REMARK   20  A    between atoms: _56  and  _57
REMARK   21  A    between atoms: _56  and  _59
REMARK   22  A    between atoms: _62  and  _64
REMARK   23  A    between atoms: _64  and  _65
REMARK   24  A    between atoms: _64  and  _67
REMARK   25  A    between atoms: _71  and  _72
REMARK   26  A    between atoms: _78  and  _79
REMARK   27  A    between atoms: _84  and  _86
REMARK   28  A    between atoms: _86  and  _87
REMARK   29  A    between atoms: _86  and  _89
REMARK   30  A    between atoms: _89  and  _90
REMARK   31  A    between atoms: _100  and  _102
REMARK   32  A    between atoms: _102  and  _103
REMARK   33  A    between atoms: _102  and  _105
REMARK   34  A    between atoms: _105  and  _106
REMARK   35  A    between atoms: _116  and  _118
REMARK   36  A    between atoms: _118  and  _119
REMARK   37  A    between atoms: _118  and  _121
REMARK   38  A    between atoms: _121  and  _122
REMARK   39  A    between atoms: _122  and  _123
REMARK   40  A    between atoms: _126  and  _128
REMARK   41  A    between atoms: _128  and  _129
REMARK   42  A    between atoms: _128  and  _131
REMARK   43  A    between atoms: _131  and  _132
REMARK   44  A    between atoms: _132  and  _133
REMARK   45  A    between atoms: _133  and  _134
REMARK   46  A    between atoms: _143  and  _145
REMARK   47  A    between atoms: _145  and  _146
REMARK   48  A    between atoms: _145  and  _148
REMARK   49  A    between atoms: _148  and  _149
REMARK   50  A    between atoms: _154  and  _155
REMARK   51  A    between atoms: _157  and  _159
REMARK   52  A    between atoms: _159  and  _160
REMARK   53  A    between atoms: _159  and  _162
REMARK   54  A    between atoms: _162  and  _163
REMARK   55  A    between atoms: _163  and  _164
REMARK   56  A    between atoms: _170  and  _171
REMARK   57  A    between atoms: _176  and  _178
REMARK   58  A    between atoms: _178  and  _179
REMARK   59  A    between atoms: _178  and  _181
REMARK   60  A    between atoms: _181  and  _182
REMARK   61  A    between atoms: _185  and  _187
REMARK   62  A    between atoms: _187  and  _188
REMARK   63  A    between atoms: _191  and  _193
REMARK   64  A    between atoms: _193  and  _194
REMARK   65  A    between atoms: _193  and  _196
REMARK   66  A    between atoms: _199  and  _201
REMARK   67  A    between atoms: _201  and  _202
REMARK   68  A    between atoms: _201  and  _204
REMARK   69  A    between atoms: _204  and  _205
REMARK   70  A    between atoms: _208  and  _210
REMARK   71  A    between atoms: _210  and  _211
REMARK   72  A    between atoms: _210  and  _213
REMARK   73  A    between atoms: _213  and  _214
REMARK   74  A    between atoms: _219  and  _221
REMARK   75  A    between atoms: _221  and  _222
REMARK   76  A    between atoms: _221  and  _224
REMARK   77  A    between atoms: _224  and  _225
REMARK   78  A    between atoms: _230  and  _232
REMARK   79  A    between atoms: _232  and  _233
REMARK   80  A    between atoms: _232  and  _235
REMARK   81  A    between atoms: _235  and  _236
REMARK   82  A    between atoms: _236  and  _237
REMARK   83  A    between atoms: _239  and  _241
REMARK   84  A    between atoms: _241  and  _242
REMARK   85  A    between atoms: _241  and  _244
REMARK   86  A    between atoms: _246  and  _248
REMARK   87  A    between atoms: _248  and  _249
REMARK   88  A    between atoms: _251  and  _253
REMARK   89  A    between atoms: _253  and  _254
REMARK   90  A    between atoms: _253  and  _256
REMARK   91  A    between atoms: _256  and  _257
REMARK   92  A    between atoms: _259  and  _261
REMARK   93  A    between atoms: _261  and  _262
REMARK   94  A    between atoms: _264  and  _266
REMARK   95  A    between atoms: _266  and  _267
REMARK   96  A    between atoms: _270  and  _272
REMARK   97  A    between atoms: _272  and  _273
REMARK   98  A    between atoms: _272  and  _275
REMARK   99  A    between atoms: _275  and  _276
REMARK  100  A    between atoms: _279  and  _281
REMARK  101  A    between atoms: _281  and  _282
REMARK  102  A    between atoms: _281  and  _284
REMARK  103  A    between atoms: _284  and  _285
REMARK  104  A    between atoms: _290  and  _291
REMARK  105  A    between atoms: _293  and  _295
REMARK  106  A    between atoms: _295  and  _296
REMARK  107  A    between atoms: _295  and  _298
REMARK  108  A    between atoms: _301  and  _303
REMARK  109  A    between atoms: _303  and  _304
REMARK  110  A    between atoms: _303  and  _306
REMARK  111  A    between atoms: _306  and  _307
REMARK  112  A    between atoms: _307  and  _308
REMARK  113  A    between atoms: _313  and  _315
REMARK  114  A    between atoms: _315  and  _316
REMARK  115  A    between atoms: _315  and  _318
REMARK  116  A    between atoms: _318  and  _319
REMARK  117  A    between atoms: _322  and  _324
REMARK  118  A    between atoms: _324  and  _325
REMARK  119  A    between atoms: _324  and  _327
REMARK  120  A    between atoms: _330  and  _332
REMARK  121  A    between atoms: _332  and  _333
REMARK  122  A    between atoms: _335  and  _337
REMARK  123  A    between atoms: _337  and  _338
REMARK  124  A    between atoms: _337  and  _340
REMARK  125  A    between atoms: _340  and  _341
REMARK  126  A    between atoms: _344  and  _346
REMARK  127  A    between atoms: _346  and  _347
REMARK  128  A    between atoms: _346  and  _349
REMARK  129  A    between atoms: _349  and  _350
REMARK  130  A    between atoms: _353  and  _355
REMARK  131  A    between atoms: _355  and  _356
REMARK  132  A    between atoms: _355  and  _358
REMARK  133  A    between atoms: _358  and  _359
REMARK  134  A    between atoms: _359  and  _360
REMARK  135  A    between atoms: _360  and  _361
REMARK  136  A    between atoms: _370  and  _372
REMARK  137  A    between atoms: _372  and  _373
REMARK  138  A    between atoms: _372  and  _375
REMARK  139  A    between atoms: _375  and  _376
REMARK  140  A    between atoms: _379  and  _381
REMARK  141  A    between atoms: _381  and  _382
REMARK  142  A    between atoms: _381  and  _384
REMARK  143  A    between atoms: _384  and  _385
REMARK  144  A    between atoms: _388  and  _390
REMARK  145  A    between atoms: _390  and  _391
REMARK  146  A    between atoms: _394  and  _396
REMARK  147  A    between atoms: _396  and  _397
REMARK  148  A    between atoms: _396  and  _399
REMARK  149  A    between atoms: _399  and  _400
REMARK  150  A    between atoms: _402  and  _404
REMARK  151  A    between atoms: _404  and  _405
REMARK  152  A    between atoms: _404  and  _407
REMARK  153  A    between atoms: _407  and  _408
REMARK  154  A    between atoms: _408  and  _409
REMARK  155  A    between atoms: _409  and  _410
REMARK  156  A    between atoms: _410  and  _411
REMARK  157  A    between atoms: _415  and  _417
REMARK  158  A    between atoms: _417  and  _418
REMARK  159  A    between atoms: _417  and  _420
REMARK  160  A    between atoms: _420  and  _421
REMARK  161  A    between atoms: _426  and  _428
REMARK  162  A    between atoms: _428  and  _429
REMARK  163  A    between atoms: _428  and  _431
REMARK  164  A    between atoms: _431  and  _432
REMARK  165  A    between atoms: _432  and  _433
REMARK  166  A    between atoms: _436  and  _438
REMARK  167  A    between atoms: _438  and  _439
REMARK  168  A    between atoms: _438  and  _441
REMARK  169  A    between atoms: _444  and  _446
REMARK  170  A    between atoms: _446  and  _447
REMARK  171  A    between atoms: _446  and  _449
REMARK  172  A    between atoms: _449  and  _450
REMARK  173  A    between atoms: _453  and  _455
REMARK  174  A    between atoms: _455  and  _456
REMARK  175  A    between atoms: _455  and  _458
REMARK  176  A    between atoms: _458  and  _459
REMARK  177  A    between atoms: _462  and  _464
REMARK  178  A    between atoms: _464  and  _465
REMARK  179  A    between atoms: _464  and  _467
REMARK  180  A    between atoms: _467  and  _468
REMARK  181  A    between atoms: _471  and  _473
REMARK  182  A    between atoms: _473  and  _474
REMARK  183  A    between atoms: _476  and  _478
REMARK  184  A    between atoms: _478  and  _479
REMARK  185  A    between atoms: _478  and  _481
REMARK  186  A    between atoms: _481  and  _482
REMARK  187  A    between atoms: _482  and  _483
REMARK  188  A    between atoms: _486  and  _488
REMARK  189  A    between atoms: _488  and  _489
REMARK  190  A    between atoms: _488  and  _491
REMARK  191  A    between atoms: _491  and  _492
REMARK  192  A    between atoms: _495  and  _497
REMARK  193  A    between atoms: _497  and  _498
REMARK  194  A    between atoms: _497  and  _500
REMARK  195  A    between atoms: _500  and  _501
REMARK  196  A    between atoms: _507  and  _509
REMARK  197  A    between atoms: _509  and  _510
REMARK  198  A    between atoms: _509  and  _512
REMARK  199  A    between atoms: _512  and  _513
REMARK  200  A    between atoms: _518  and  _520
REMARK  201  A    between atoms: _520  and  _521
REMARK  202  A    between atoms: _520  and  _523
REMARK  203  A    between atoms: _523  and  _524
REMARK  204  A    between atoms: _529  and  _531
REMARK  205  A    between atoms: _531  and  _532
REMARK  206  A    between atoms: _531  and  _534
REMARK  207  A    between atoms: _534  and  _535
REMARK  208  A    between atoms: _538  and  _540
REMARK  209  A    between atoms: _540  and  _541
REMARK  210  A    between atoms: _540  and  _543
REMARK  211  A    between atoms: _543  and  _544
REMARK  212  A    between atoms: _549  and  _551
REMARK  213  A    between atoms: _551  and  _552
REMARK  214  A    between atoms: _551  and  _554
REMARK  215  A    between atoms: _554  and  _555
REMARK  216  A    between atoms: _555  and  _556
REMARK  217  A    between atoms: _556  and  _557
REMARK  218  A    between atoms: _566  and  _568
REMARK  219  A    between atoms: _568  and  _569
REMARK  220  A    between atoms: _571  and  _573
REMARK  221  A    between atoms: _573  and  _574
REMARK  222  A    between atoms: _573  and  _576
REMARK  223  A    between atoms: _576  and  _577
REMARK  224  A    between atoms: _582  and  _584
REMARK  225  A    between atoms: _584  and  _585
REMARK  226  A    between atoms: _587  and  _589
REMARK  227  A    between atoms: _589  and  _590
REMARK  228  A    between atoms: _593  and  _595
REMARK  229  A    between atoms: _595  and  _596
REMARK  230  A    between atoms: _598  and  _600
REMARK  231  A    between atoms: _600  and  _601
REMARK  232  A    between atoms: _600  and  _603
REMARK  233  A    between atoms: _603  and  _604
REMARK  234  A    between atoms: _604  and  _605
REMARK  235  A    between atoms: _605  and  _606
REMARK  236  A    between atoms: _615  and  _617
REMARK  237  A    between atoms: _617  and  _618
REMARK  238  A    between atoms: _617  and  _620
REMARK  239  A    between atoms: _620  and  _621
REMARK  240  A    between atoms: _624  and  _626
REMARK  241  A    between atoms: _626  and  _627
REMARK  242  A    between atoms: _626  and  _629
REMARK  243  A    between atoms: _629  and  _630
REMARK                            x       y       z     vdW  Elec       q    Type
REMARK                         _______ _______ _______ _____ _____    ______ ____
ROOT
ATOM      1  O   HOH     1       3.551  41.673  24.525  0.00  0.00    +0.000 OA
ENDROOT
TORSDOF 0
REMARK  Name = ../refined-set-2016/1ppi/1ppi_pocket.pdb
REMARK  243 active torsions:
REMARK  status: ('A' for Active; 'I' for Inactive)
REMARK    1  A    between atoms: _1  and  _3
REMARK    2  A    between atoms: _3  and  _4
REMARK    3  A    between atoms: _3  and  _6
REMARK    4  A    between atoms: _6  and  _7
REMARK    5  A    between atoms: _12  and  _14
REMARK    6  A    between atoms: _14  and  _15
REMARK    7  A    between atoms: _14  and  _17
REMARK    8  A    between atoms: _17  and  _18
REMARK    9  A    between atoms: _24  and  _26
REMARK   10  A    between atoms: _26  and  _27
REMARK   11  A    between atoms: _26  and  _29
REMARK   12  A    between atoms: _29  and  _30
REMARK   13  A    between atoms: _30  and  _31
REMARK   14  A    between atoms: _37  and  _38
REMARK   15  A    between atoms: _43  and  _45
REMARK   16  A    between atoms: _45  and  _46
REMARK   17  A    between atoms: _45  and  _48
REMARK   18  A    between atoms: _48  and  _49
REMARK   19  A    between atoms: _54  and  _56
REMARK   20  A    between atoms: _56  and  _57
REMARK   21  A    between atoms: _56  and  _59
REMARK   22  A    between atoms: _62  and  _64
REMARK   23  A    between atoms: _64  and  _65
REMARK   24  A    between atoms: _64  and  _67
REMARK   25  A    between atoms: _71  and  _72
REMARK   26  A    between atoms: _78  and  _79
REMARK   27  A    between atoms: _84  and  _86
REMARK   28  A    between atoms: _86  and  _87
REMARK   29  A    between atoms: _86  and  _89
REMARK   30  A    between atoms: _89  and  _90
REMARK   31  A    between atoms: _100  and  _102
REMARK   32  A    between atoms: _102  and  _103
REMARK   33  A    between atoms: _102  and  _105
REMARK   34  A    between atoms: _105  and  _106
REMARK   35  A    between atoms: _116  and  _118
REMARK   36  A    between atoms: _118  and  _119
REMARK   37  A    between atoms: _118  and  _121
REMARK   38  A    between atoms: _121  and  _122
REMARK   39  A    between atoms: _122  and  _123
REMARK   40  A    between atoms: _126  and  _128
REMARK   41  A    between atoms: _128  and  _129
REMARK   42  A    between atoms: _128  and  _131
REMARK   43  A    between atoms: _131  and  _132
REMARK   44  A    between atoms: _132  and  _133
REMARK   45  A    between atoms: _133  and  _134
REMARK   46  A    between atoms: _143  and  _145
REMARK   47  A    between atoms: _145  and  _146
REMARK   48  A    between atoms: _145  and  _148
REMARK   49  A    between atoms: _148  and  _149
REMARK   50  A    between atoms: _154  and  _155
REMARK   51  A    between atoms: _157  and  _159
REMARK   52  A    between atoms: _159  and  _160
REMARK   53  A    between atoms: _159  and  _162
REMARK   54  A    between atoms: _162  and  _163
REMARK   55  A    between atoms: _163  and  _164
REMARK   56  A    between atoms: _170  and  _171
REMARK   57  A    between atoms: _176  and  _178
REMARK   58  A    between atoms: _178  and  _179
REMARK   59  A    between atoms: _178  and  _181
REMARK   60  A    between atoms: _181  and  _182
REMARK   61  A    between atoms: _185  and  _187
REMARK   62  A    between atoms: _187  and  _188
REMARK   63  A    between atoms: _191  and  _193
REMARK   64  A    between atoms: _193  and  _194
REMARK   65  A    between atoms: _193  and  _196
REMARK   66  A    between atoms: _199  and  _201
REMARK   67  A    between atoms: _201  and  _202
REMARK   68  A    between atoms: _201  and  _204
REMARK   69  A    between atoms: _204  and  _205
REMARK   70  A    between atoms: _208  and  _210
REMARK   71  A    between atoms: _210  and  _211
REMARK   72  A    between atoms: _210  and  _213
REMARK   73  A    between atoms: _213  and  _214
REMARK   74  A    between atoms: _219  and  _221
REMARK   75  A    between atoms: _221  and  _222
REMARK   76  A    between atoms: _221  and  _224
REMARK   77  A    between atoms: _224  and  _225
REMARK   78  A    between atoms: _230  and  _232
REMARK   79  A    between atoms: _232  and  _233
REMARK   80  A    between atoms: _232  and  _235
REMARK   81  A    between atoms: _235  and  _236
REMARK   82  A    between atoms: _236  and  _237
REMARK   83  A    between atoms: _239  and  _241
REMARK   84  A    between atoms: _241  and  _242
REMARK   85  A    between atoms: _241  and  _244
REMARK   86  A    between atoms: _246  and  _248
REMARK   87  A    between atoms: _248  and  _249
REMARK   88  A    between atoms: _251  and  _253
REMARK   89  A    between atoms: _253  and  _254
REMARK   90  A    between atoms: _253  and  _256
REMARK   91  A    between atoms: _256  and  _257
REMARK   92  A    between atoms: _259  and  _261
REMARK   93  A    between atoms: _261  and  _262
REMARK   94  A    between atoms: _264  and  _266
REMARK   95  A    between atoms: _266  and  _267
REMARK   96  A    between atoms: _270  and  _272
REMARK   97  A    between atoms: _272  and  _273
REMARK   98  A    between atoms: _272  and  _275
REMARK   99  A    between atoms: _275  and  _276
REMARK  100  A    between atoms: _279  and  _281
REMARK  101  A    between atoms: _281  and  _282
REMARK  102  A    between atoms: _281  and  _284
REMARK  103  A    between atoms: _284  and  _285
REMARK  104  A    between atoms: _290  and  _291
REMARK  105  A    between atoms: _293  and  _295
REMARK  106  A    between atoms: _295  and  _296
REMARK  107  A    between atoms: _295  and  _298
REMARK  108  A    between atoms: _301  and  _303
REMARK  109  A    between atoms: _303  and  _304
REMARK  110  A    between atoms: _303  and  _306
REMARK  111  A    between atoms: _306  and  _307
REMARK  112  A    between atoms: _307  and  _308
REMARK  113  A    between atoms: _313  and  _315
REMARK  114  A    between atoms: _315  and  _316
REMARK  115  A    between atoms: _315  and  _318
REMARK  116  A    between atoms: _318  and  _319
REMARK  117  A    between atoms: _322  and  _324
REMARK  118  A    between atoms: _324  and  _325
REMARK  119  A    between atoms: _324  and  _327
REMARK  120  A    between atoms: _330  and  _332
REMARK  121  A    between atoms: _332  and  _333
REMARK  122  A    between atoms: _335  and  _337
REMARK  123  A    between atoms: _337  and  _338
REMARK  124  A    between atoms: _337  and  _340
REMARK  125  A    between atoms: _340  and  _341
REMARK  126  A    between atoms: _344  and  _346
REMARK  127  A    between atoms: _346  and  _347
REMARK  128  A    between atoms: _346  and  _349
REMARK  129  A    between atoms: _349  and  _350
REMARK  130  A    between atoms: _353  and  _355
REMARK  131  A    between atoms: _355  and  _356
REMARK  132  A    between atoms: _355  and  _358
REMARK  133  A    between atoms: _358  and  _359
REMARK  134  A    between atoms: _359  and  _360
REMARK  135  A    between atoms: _360  and  _361
REMARK  136  A    between atoms: _370  and  _372
REMARK  137  A    between atoms: _372  and  _373
REMARK  138  A    between atoms: _372  and  _375
REMARK  139  A    between atoms: _375  and  _376
REMARK  140  A    between atoms: _379  and  _381
REMARK  141  A    between atoms: _381  and  _382
REMARK  142  A    between atoms: _381  and  _384
REMARK  143  A    between atoms: _384  and  _385
REMARK  144  A    between atoms: _388  and  _390
REMARK  145  A    between atoms: _390  and  _391
REMARK  146  A    between atoms: _394  and  _396
REMARK  147  A    between atoms: _396  and  _397
REMARK  148  A    between atoms: _396  and  _399
REMARK  149  A    between atoms: _399  and  _400
REMARK  150  A    between atoms: _402  and  _404
REMARK  151  A    between atoms: _404  and  _405
REMARK  152  A    between atoms: _404  and  _407
REMARK  153  A    between atoms: _407  and  _408
REMARK  154  A    between atoms: _408  and  _409
REMARK  155  A    between atoms: _409  and  _410
REMARK  156  A    between atoms: _410  and  _411
REMARK  157  A    between atoms: _415  and  _417
REMARK  158  A    between atoms: _417  and  _418
REMARK  159  A    between atoms: _417  and  _420
REMARK  160  A    between atoms: _420  and  _421
REMARK  161  A    between atoms: _426  and  _428
REMARK  162  A    between atoms: _428  and  _429
REMARK  163  A    between atoms: _428  and  _431
REMARK  164  A    between atoms: _431  and  _432
REMARK  165  A    between atoms: _432  and  _433
REMARK  166  A    between atoms: _436  and  _438
REMARK  167  A    between atoms: _438  and  _439
REMARK  168  A    between atoms: _438  and  _441
REMARK  169  A    between atoms: _444  and  _446
REMARK  170  A    between atoms: _446  and  _447
REMARK  171  A    between atoms: _446  and  _449
REMARK  172  A    between atoms: _449  and  _450
REMARK  173  A    between atoms: _453  and  _455
REMARK  174  A    between atoms: _455  and  _456
REMARK  175  A    between atoms: _455  and  _458
REMARK  176  A    between atoms: _458  and  _459
REMARK  177  A    between atoms: _462  and  _464
REMARK  178  A    between atoms: _464  and  _465
REMARK  179  A    between atoms: _464  and  _467
REMARK  180  A    between atoms: _467  and  _468
REMARK  181  A    between atoms: _471  and  _473
REMARK  182  A    between atoms: _473  and  _474
REMARK  183  A    between atoms: _476  and  _478
REMARK  184  A    between atoms: _478  and  _479
REMARK  185  A    between atoms: _478  and  _481
REMARK  186  A    between atoms: _481  and  _482
REMARK  187  A    between atoms: _482  and  _483
REMARK  188  A    between atoms: _486  and  _488
REMARK  189  A    between atoms: _488  and  _489
REMARK  190  A    between atoms: _488  and  _491
REMARK  191  A    between atoms: _491  and  _492
REMARK  192  A    between atoms: _495  and  _497
REMARK  193  A    between atoms: _497  and  _498
REMARK  194  A    between atoms: _497  and  _500
REMARK  195  A    between atoms: _500  and  _501
REMARK  196  A    between atoms: _507  and  _509
REMARK  197  A    between atoms: _509  and  _510
REMARK  198  A    between atoms: _509  and  _512
REMARK  199  A    between atoms: _512  and  _513
REMARK  200  A    between atoms: _518  and  _520
REMARK  201  A    between atoms: _520  and  _521
REMARK  202  A    between atoms: _520  and  _523
REMARK  203  A    between atoms: _523  and  _524
REMARK  204  A    between atoms: _529  and  _531
REMARK  205  A    between atoms: _531  and  _532
REMARK  206  A    between atoms: _531  and  _534
REMARK  207  A    between atoms: _534  and  _535
REMARK  208  A    between atoms: _538  and  _540
REMARK  209  A    between atoms: _540  and  _541
REMARK  210  A    between atoms: _540  and  _543
REMARK  211  A    between atoms: _543  and  _544
REMARK  212  A    between atoms: _549  and  _551
REMARK  213  A    between atoms: _551  and  _552
REMARK  214  A    between atoms: _551  and  _554
REMARK  215  A    between atoms: _554  and  _555
REMARK  216  A    between atoms: _555  and  _556
REMARK  217  A    between atoms: _556  and  _557
REMARK  218  A    between atoms: _566  and  _568
REMARK  219  A    between atoms: _568  and  _569
REMARK  220  A    between atoms: _571  and  _573
REMARK  221  A    between atoms: _573  and  _574
REMARK  222  A    between atoms: _573  and  _576
REMARK  223  A    between atoms: _576  and  _577
REMARK  224  A    between atoms: _582  and  _584
REMARK  225  A    between atoms: _584  and  _585
REMARK  226  A    between atoms: _587  and  _589
REMARK  227  A    between atoms: _589  and  _590
REMARK  228  A    between atoms: _593  and  _595
REMARK  229  A    between atoms: _595  and  _596
REMARK  230  A    between atoms: _598  and  _600
REMARK  231  A    between atoms: _600  and  _601
REMARK  232  A    between atoms: _600  and  _603
REMARK  233  A    between atoms: _603  and  _604
REMARK  234  A    between atoms: _604  and  _605
REMARK  235  A    between atoms: _605  and  _606
REMARK  236  A    between atoms: _615  and  _617
REMARK  237  A    between atoms: _617  and  _618
REMARK  238  A    between atoms: _617  and  _620
REMARK  239  A    between atoms: _620  and  _621
REMARK  240  A    between atoms: _624  and  _626
REMARK  241  A    between atoms: _626  and  _627
REMARK  242  A    between atoms: _626  and  _629
REMARK  243  A    between atoms: _629  and  _630
REMARK                            x       y       z     vdW  Elec       q    Type
REMARK                         _______ _______ _______ _____ _____    ______ ____
ROOT
ATOM      1  O   HOH     1       0.604  52.622  18.863  0.00  0.00    +0.000 OA
ENDROOT
TORSDOF 0
REMARK  Name = ../refined-set-2016/1ppi/1ppi_pocket.pdb
REMARK  243 active torsions:
REMARK  status: ('A' for Active; 'I' for Inactive)
REMARK    1  A    between atoms: _1  and  _3
REMARK    2  A    between atoms: _3  and  _4
REMARK    3  A    between atoms: _3  and  _6
REMARK    4  A    between atoms: _6  and  _7
REMARK    5  A    between atoms: _12  and  _14
REMARK    6  A    between atoms: _14  and  _15
REMARK    7  A    between atoms: _14  and  _17
REMARK    8  A    between atoms: _17  and  _18
REMARK    9  A    between atoms: _24  and  _26
REMARK   10  A    between atoms: _26  and  _27
REMARK   11  A    between atoms: _26  and  _29
REMARK   12  A    between atoms: _29  and  _30
REMARK   13  A    between atoms: _30  and  _31
REMARK   14  A    between atoms: _37  and  _38
REMARK   15  A    between atoms: _43  and  _45
REMARK   16  A    between atoms: _45  and  _46
REMARK   17  A    between atoms: _45  and  _48
REMARK   18  A    between atoms: _48  and  _49
REMARK   19  A    between atoms: _54  and  _56
REMARK   20  A    between atoms: _56  and  _57
REMARK   21  A    between atoms: _56  and  _59
REMARK   22  A    between atoms: _62  and  _64
REMARK   23  A    between atoms: _64  and  _65
REMARK   24  A    between atoms: _64  and  _67
REMARK   25  A    between atoms: _71  and  _72
REMARK   26  A    between atoms: _78  and  _79
REMARK   27  A    between atoms: _84  and  _86
REMARK   28  A    between atoms: _86  and  _87
REMARK   29  A    between atoms: _86  and  _89
REMARK   30  A    between atoms: _89  and  _90
REMARK   31  A    between atoms: _100  and  _102
REMARK   32  A    between atoms: _102  and  _103
REMARK   33  A    between atoms: _102  and  _105
REMARK   34  A    between atoms: _105  and  _106
REMARK   35  A    between atoms: _116  and  _118
REMARK   36  A    between atoms: _118  and  _119
REMARK   37  A    between atoms: _118  and  _121
REMARK   38  A    between atoms: _121  and  _122
REMARK   39  A    between atoms: _122  and  _123
REMARK   40  A    between atoms: _126  and  _128
REMARK   41  A    between atoms: _128  and  _129
REMARK   42  A    between atoms: _128  and  _131
REMARK   43  A    between atoms: _131  and  _132
REMARK   44  A    between atoms: _132  and  _133
REMARK   45  A    between atoms: _133  and  _134
REMARK   46  A    between atoms: _143  and  _145
REMARK   47  A    between atoms: _145  and  _146
REMARK   48  A    between atoms: _145  and  _148
REMARK   49  A    between atoms: _148  and  _149
REMARK   50  A    between atoms: _154  and  _155
REMARK   51  A    between atoms: _157  and  _159
REMARK   52  A    between atoms: _159  and  _160
REMARK   53  A    between atoms: _159  and  _162
REMARK   54  A    between atoms: _162  and  _163
REMARK   55  A    between atoms: _163  and  _164
REMARK   56  A    between atoms: _170  and  _171
REMARK   57  A    between atoms: _176  and  _178
REMARK   58  A    between atoms: _178  and  _179
REMARK   59  A    between atoms: _178  and  _181
REMARK   60  A    between atoms: _181  and  _182
REMARK   61  A    between atoms: _185  and  _187
REMARK   62  A    between atoms: _187  and  _188
REMARK   63  A    between atoms: _191  and  _193
REMARK   64  A    between atoms: _193  and  _194
REMARK   65  A    between atoms: _193  and  _196
REMARK   66  A    between atoms: _199  and  _201
REMARK   67  A    between atoms: _201  and  _202
REMARK   68  A    between atoms: _201  and  _204
REMARK   69  A    between atoms: _204  and  _205
REMARK   70  A    between atoms: _208  and  _210
REMARK   71  A    between atoms: _210  and  _211
REMARK   72  A    between atoms: _210  and  _213
REMARK   73  A    between atoms: _213  and  _214
REMARK   74  A    between atoms: _219  and  _221
REMARK   75  A    between atoms: _221  and  _222
REMARK   76  A    between atoms: _221  and  _224
REMARK   77  A    between atoms: _224  and  _225
REMARK   78  A    between atoms: _230  and  _232
REMARK   79  A    between atoms: _232  and  _233
REMARK   80  A    between atoms: _232  and  _235
REMARK   81  A    between atoms: _235  and  _236
REMARK   82  A    between atoms: _236  and  _237
REMARK   83  A    between atoms: _239  and  _241
REMARK   84  A    between atoms: _241  and  _242
REMARK   85  A    between atoms: _241  and  _244
REMARK   86  A    between atoms: _246  and  _248
REMARK   87  A    between atoms: _248  and  _249
REMARK   88  A    between atoms: _251  and  _253
REMARK   89  A    between atoms: _253  and  _254
REMARK   90  A    between atoms: _253  and  _256
REMARK   91  A    between atoms: _256  and  _257
REMARK   92  A    between atoms: _259  and  _261
REMARK   93  A    between atoms: _261  and  _262
REMARK   94  A    between atoms: _264  and  _266
REMARK   95  A    between atoms: _266  and  _267
REMARK   96  A    between atoms: _270  and  _272
REMARK   97  A    between atoms: _272  and  _273
REMARK   98  A    between atoms: _272  and  _275
REMARK   99  A    between atoms: _275  and  _276
REMARK  100  A    between atoms: _279  and  _281
REMARK  101  A    between atoms: _281  and  _282
REMARK  102  A    between atoms: _281  and  _284
REMARK  103  A    between atoms: _284  and  _285
REMARK  104  A    between atoms: _290  and  _291
REMARK  105  A    between atoms: _293  and  _295
REMARK  106  A    between atoms: _295  and  _296
REMARK  107  A    between atoms: _295  and  _298
REMARK  108  A    between atoms: _301  and  _303
REMARK  109  A    between atoms: _303  and  _304
REMARK  110  A    between atoms: _303  and  _306
REMARK  111  A    between atoms: _306  and  _307
REMARK  112  A    between atoms: _307  and  _308
REMARK  113  A    between atoms: _313  and  _315
REMARK  114  A    between atoms: _315  and  _316
REMARK  115  A    between atoms: _315  and  _318
REMARK  116  A    between atoms: _318  and  _319
REMARK  117  A    between atoms: _322  and  _324
REMARK  118  A    between atoms: _324  and  _325
REMARK  119  A    between atoms: _324  and  _327
REMARK  120  A    between atoms: _330  and  _332
REMARK  121  A    between atoms: _332  and  _333
REMARK  122  A    between atoms: _335  and  _337
REMARK  123  A    between atoms: _337  and  _338
REMARK  124  A    between atoms: _337  and  _340
REMARK  125  A    between atoms: _340  and  _341
REMARK  126  A    between atoms: _344  and  _346
REMARK  127  A    between atoms: _346  and  _347
REMARK  128  A    between atoms: _346  and  _349
REMARK  129  A    between atoms: _349  and  _350
REMARK  130  A    between atoms: _353  and  _355
REMARK  131  A    between atoms: _355  and  _356
REMARK  132  A    between atoms: _355  and  _358
REMARK  133  A    between atoms: _358  and  _359
REMARK  134  A    between atoms: _359  and  _360
REMARK  135  A    between atoms: _360  and  _361
REMARK  136  A    between atoms: _370  and  _372
REMARK  137  A    between atoms: _372  and  _373
REMARK  138  A    between atoms: _372  and  _375
REMARK  139  A    between atoms: _375  and  _376
REMARK  140  A    between atoms: _379  and  _381
REMARK  141  A    between atoms: _381  and  _382
REMARK  142  A    between atoms: _381  and  _384
REMARK  143  A    between atoms: _384  and  _385
REMARK  144  A    between atoms: _388  and  _390
REMARK  145  A    between atoms: _390  and  _391
REMARK  146  A    between atoms: _394  and  _396
REMARK  147  A    between atoms: _396  and  _397
REMARK  148  A    between atoms: _396  and  _399
REMARK  149  A    between atoms: _399  and  _400
REMARK  150  A    between atoms: _402  and  _404
REMARK  151  A    between atoms: _404  and  _405
REMARK  152  A    between atoms: _404  and  _407
REMARK  153  A    between atoms: _407  and  _408
REMARK  154  A    between atoms: _408  and  _409
REMARK  155  A    between atoms: _409  and  _410
REMARK  156  A    between atoms: _410  and  _411
REMARK  157  A    between atoms: _415  and  _417
REMARK  158  A    between atoms: _417  and  _418
REMARK  159  A    between atoms: _417  and  _420
REMARK  160  A    between atoms: _420  and  _421
REMARK  161  A    between atoms: _426  and  _428
REMARK  162  A    between atoms: _428  and  _429
REMARK  163  A    between atoms: _428  and  _431
REMARK  164  A    between atoms: _431  and  _432
REMARK  165  A    between atoms: _432  and  _433
REMARK  166  A    between atoms: _436  and  _438
REMARK  167  A    between atoms: _438  and  _439
REMARK  168  A    between atoms: _438  and  _441
REMARK  169  A    between atoms: _444  and  _446
REMARK  170  A    between atoms: _446  and  _447
REMARK  171  A    between atoms: _446  and  _449
REMARK  172  A    between atoms: _449  and  _450
REMARK  173  A    between atoms: _453  and  _455
REMARK  174  A    between atoms: _455  and  _456
REMARK  175  A    between atoms: _455  and  _458
REMARK  176  A    between atoms: _458  and  _459
REMARK  177  A    between atoms: _462  and  _464
REMARK  178  A    between atoms: _464  and  _465
REMARK  179  A    between atoms: _464  and  _467
REMARK  180  A    between atoms: _467  and  _468
REMARK  181  A    between atoms: _471  and  _473
REMARK  182  A    between atoms: _473  and  _474
REMARK  183  A    between atoms: _476  and  _478
REMARK  184  A    between atoms: _478  and  _479
REMARK  185  A    between atoms: _478  and  _481
REMARK  186  A    between atoms: _481  and  _482
REMARK  187  A    between atoms: _482  and  _483
REMARK  188  A    between atoms: _486  and  _488
REMARK  189  A    between atoms: _488  and  _489
REMARK  190  A    between atoms: _488  and  _491
REMARK  191  A    between atoms: _491  and  _492
REMARK  192  A    between atoms: _495  and  _497
REMARK  193  A    between atoms: _497  and  _498
REMARK  194  A    between atoms: _497  and  _500
REMARK  195  A    between atoms: _500  and  _501
REMARK  196  A    between atoms: _507  and  _509
REMARK  197  A    between atoms: _509  and  _510
REMARK  198  A    between atoms: _509  and  _512
REMARK  199  A    between atoms: _512  and  _513
REMARK  200  A    between atoms: _518  and  _520
REMARK  201  A    between atoms: _520  and  _521
REMARK  202  A    between atoms: _520  and  _523
REMARK  203  A    between atoms: _523  and  _524
REMARK  204  A    between atoms: _529  and  _531
REMARK  205  A    between atoms: _531  and  _532
REMARK  206  A    between atoms: _531  and  _534
REMARK  207  A    between atoms: _534  and  _535
REMARK  208  A    between atoms: _538  and  _540
REMARK  209  A    between atoms: _540  and  _541
REMARK  210  A    between atoms: _540  and  _543
REMARK  211  A    between atoms: _543  and  _544
REMARK  212  A    between atoms: _549  and  _551
REMARK  213  A    between atoms: _551  and  _552
REMARK  214  A    between atoms: _551  and  _554
REMARK  215  A    between atoms: _554  and  _555
REMARK  216  A    between atoms: _555  and  _556
REMARK  217  A    between atoms: _556  and  _557
REMARK  218  A    between atoms: _566  and  _568
REMARK  219  A    between atoms: _568  and  _569
REMARK  220  A    between atoms: _571  and  _573
REMARK  221  A    between atoms: _573  and  _574
REMARK  222  A    between atoms: _573  and  _576
REMARK  223  A    between atoms: _576  and  _577
REMARK  224  A    between atoms: _582  and  _584
REMARK  225  A    between atoms: _584  and  _585
REMARK  226  A    between atoms: _587  and  _589
REMARK  227  A    between atoms: _589  and  _590
REMARK  228  A    between atoms: _593  and  _595
REMARK  229  A    between atoms: _595  and  _596
REMARK  230  A    between atoms: _598  and  _600
REMARK  231  A    between atoms: _600  and  _601
REMARK  232  A    between atoms: _600  and  _603
REMARK  233  A    between atoms: _603  and  _604
REMARK  234  A    between atoms: _604  and  _605
REMARK  235  A    between atoms: _605  and  _606
REMARK  236  A    between atoms: _615  and  _617
REMARK  237  A    between atoms: _617  and  _618
REMARK  238  A    between atoms: _617  and  _620
REMARK  239  A    between atoms: _620  and  _621
REMARK  240  A    between atoms: _624  and  _626
REMARK  241  A    between atoms: _626  and  _627
REMARK  242  A    between atoms: _626  and  _629
REMARK  243  A    between atoms: _629  and  _630
REMARK                            x       y       z     vdW  Elec       q    Type
REMARK                         _______ _______ _______ _____ _____    ______ ____
ROOT
ATOM      1  O   HOH     1      10.289  41.655  17.383  0.00  0.00    +0.000 OA
ENDROOT
TORSDOF 0
REMARK  Name = ../refined-set-2016/1ppi/1ppi_pocket.pdb
REMARK  243 active torsions:
REMARK  status: ('A' for Active; 'I' for Inactive)
REMARK    1  A    between atoms: _1  and  _3
REMARK    2  A    between atoms: _3  and  _4
REMARK    3  A    between atoms: _3  and  _6
REMARK    4  A    between atoms: _6  and  _7
REMARK    5  A    between atoms: _12  and  _14
REMARK    6  A    between atoms: _14  and  _15
REMARK    7  A    between atoms: _14  and  _17
REMARK    8  A    between atoms: _17  and  _18
REMARK    9  A    between atoms: _24  and  _26
REMARK   10  A    between atoms: _26  and  _27
REMARK   11  A    between atoms: _26  and  _29
REMARK   12  A    between atoms: _29  and  _30
REMARK   13  A    between atoms: _30  and  _31
REMARK   14  A    between atoms: _37  and  _38
REMARK   15  A    between atoms: _43  and  _45
REMARK   16  A    between atoms: _45  and  _46
REMARK   17  A    between atoms: _45  and  _48
REMARK   18  A    between atoms: _48  and  _49
REMARK   19  A    between atoms: _54  and  _56
REMARK   20  A    between atoms: _56  and  _57
REMARK   21  A    between atoms: _56  and  _59
REMARK   22  A    between atoms: _62  and  _64
REMARK   23  A    between atoms: _64  and  _65
REMARK   24  A    between atoms: _64  and  _67
REMARK   25  A    between atoms: _71  and  _72
REMARK   26  A    between atoms: _78  and  _79
REMARK   27  A    between atoms: _84  and  _86
REMARK   28  A    between atoms: _86  and  _87
REMARK   29  A    between atoms: _86  and  _89
REMARK   30  A    between atoms: _89  and  _90
REMARK   31  A    between atoms: _100  and  _102
REMARK   32  A    between atoms: _102  and  _103
REMARK   33  A    between atoms: _102  and  _105
REMARK   34  A    between atoms: _105  and  _106
REMARK   35  A    between atoms: _116  and  _118
REMARK   36  A    between atoms: _118  and  _119
REMARK   37  A    between atoms: _118  and  _121
REMARK   38  A    between atoms: _121  and  _122
REMARK   39  A    between atoms: _122  and  _123
REMARK   40  A    between atoms: _126  and  _128
REMARK   41  A    between atoms: _128  and  _129
REMARK   42  A    between atoms: _128  and  _131
REMARK   43  A    between atoms: _131  and  _132
REMARK   44  A    between atoms: _132  and  _133
REMARK   45  A    between atoms: _133  and  _134
REMARK   46  A    between atoms: _143  and  _145
REMARK   47  A    between atoms: _145  and  _146
REMARK   48  A    between atoms: _145  and  _148
REMARK   49  A    between atoms: _148  and  _149
REMARK   50  A    between atoms: _154  and  _155
REMARK   51  A    between atoms: _157  and  _159
REMARK   52  A    between atoms: _159  and  _160
REMARK   53  A    between atoms: _159  and  _162
REMARK   54  A    between atoms: _162  and  _163
REMARK   55  A    between atoms: _163  and  _164
REMARK   56  A    between atoms: _170  and  _171
REMARK   57  A    between atoms: _176  and  _178
REMARK   58  A    between atoms: _178  and  _179
REMARK   59  A    between atoms: _178  and  _181
REMARK   60  A    between atoms: _181  and  _182
REMARK   61  A    between atoms: _185  and  _187
REMARK   62  A    between atoms: _187  and  _188
REMARK   63  A    between atoms: _191  and  _193
REMARK   64  A    between atoms: _193  and  _194
REMARK   65  A    between atoms: _193  and  _196
REMARK   66  A    between atoms: _199  and  _201
REMARK   67  A    between atoms: _201  and  _202
REMARK   68  A    between atoms: _201  and  _204
REMARK   69  A    between atoms: _204  and  _205
REMARK   70  A    between atoms: _208  and  _210
REMARK   71  A    between atoms: _210  and  _211
REMARK   72  A    between atoms: _210  and  _213
REMARK   73  A    between atoms: _213  and  _214
REMARK   74  A    between atoms: _219  and  _221
REMARK   75  A    between atoms: _221  and  _222
REMARK   76  A    between atoms: _221  and  _224
REMARK   77  A    between atoms: _224  and  _225
REMARK   78  A    between atoms: _230  and  _232
REMARK   79  A    between atoms: _232  and  _233
REMARK   80  A    between atoms: _232  and  _235
REMARK   81  A    between atoms: _235  and  _236
REMARK   82  A    between atoms: _236  and  _237
REMARK   83  A    between atoms: _239  and  _241
REMARK   84  A    between atoms: _241  and  _242
REMARK   85  A    between atoms: _241  and  _244
REMARK   86  A    between atoms: _246  and  _248
REMARK   87  A    between atoms: _248  and  _249
REMARK   88  A    between atoms: _251  and  _253
REMARK   89  A    between atoms: _253  and  _254
REMARK   90  A    between atoms: _253  and  _256
REMARK   91  A    between atoms: _256  and  _257
REMARK   92  A    between atoms: _259  and  _261
REMARK   93  A    between atoms: _261  and  _262
REMARK   94  A    between atoms: _264  and  _266
REMARK   95  A    between atoms: _266  and  _267
REMARK   96  A    between atoms: _270  and  _272
REMARK   97  A    between atoms: _272  and  _273
REMARK   98  A    between atoms: _272  and  _275
REMARK   99  A    between atoms: _275  and  _276
REMARK  100  A    between atoms: _279  and  _281
REMARK  101  A    between atoms: _281  and  _282
REMARK  102  A    between atoms: _281  and  _284
REMARK  103  A    between atoms: _284  and  _285
REMARK  104  A    between atoms: _290  and  _291
REMARK  105  A    between atoms: _293  and  _295
REMARK  106  A    between atoms: _295  and  _296
REMARK  107  A    between atoms: _295  and  _298
REMARK  108  A    between atoms: _301  and  _303
REMARK  109  A    between atoms: _303  and  _304
REMARK  110  A    between atoms: _303  and  _306
REMARK  111  A    between atoms: _306  and  _307
REMARK  112  A    between atoms: _307  and  _308
REMARK  113  A    between atoms: _313  and  _315
REMARK  114  A    between atoms: _315  and  _316
REMARK  115  A    between atoms: _315  and  _318
REMARK  116  A    between atoms: _318  and  _319
REMARK  117  A    between atoms: _322  and  _324
REMARK  118  A    between atoms: _324  and  _325
REMARK  119  A    between atoms: _324  and  _327
REMARK  120  A    between atoms: _330  and  _332
REMARK  121  A    between atoms: _332  and  _333
REMARK  122  A    between atoms: _335  and  _337
REMARK  123  A    between atoms: _337  and  _338
REMARK  124  A    between atoms: _337  and  _340
REMARK  125  A    between atoms: _340  and  _341
REMARK  126  A    between atoms: _344  and  _346
REMARK  127  A    between atoms: _346  and  _347
REMARK  128  A    between atoms: _346  and  _349
REMARK  129  A    between atoms: _349  and  _350
REMARK  130  A    between atoms: _353  and  _355
REMARK  131  A    between atoms: _355  and  _356
REMARK  132  A    between atoms: _355  and  _358
REMARK  133  A    between atoms: _358  and  _359
REMARK  134  A    between atoms: _359  and  _360
REMARK  135  A    between atoms: _360  and  _361
REMARK  136  A    between atoms: _370  and  _372
REMARK  137  A    between atoms: _372  and  _373
REMARK  138  A    between atoms: _372  and  _375
REMARK  139  A    between atoms: _375  and  _376
REMARK  140  A    between atoms: _379  and  _381
REMARK  141  A    between atoms: _381  and  _382
REMARK  142  A    between atoms: _381  and  _384
REMARK  143  A    between atoms: _384  and  _385
REMARK  144  A    between atoms: _388  and  _390
REMARK  145  A    between atoms: _390  and  _391
REMARK  146  A    between atoms: _394  and  _396
REMARK  147  A    between atoms: _396  and  _397
REMARK  148  A    between atoms: _396  and  _399
REMARK  149  A    between atoms: _399  and  _400
REMARK  150  A    between atoms: _402  and  _404
REMARK  151  A    between atoms: _404  and  _405
REMARK  152  A    between atoms: _404  and  _407
REMARK  153  A    between atoms: _407  and  _408
REMARK  154  A    between atoms: _408  and  _409
REMARK  155  A    between atoms: _409  and  _410
REMARK  156  A    between atoms: _410  and  _411
REMARK  157  A    between atoms: _415  and  _417
REMARK  158  A    between atoms: _417  and  _418
REMARK  159  A    between atoms: _417  and  _420
REMARK  160  A    between atoms: _420  and  _421
REMARK  161  A    between atoms: _426  and  _428
REMARK  162  A    between atoms: _428  and  _429
REMARK  163  A    between atoms: _428  and  _431
REMARK  164  A    between atoms: _431  and  _432
REMARK  165  A    between atoms: _432  and  _433
REMARK  166  A    between atoms: _436  and  _438
REMARK  167  A    between atoms: _438  and  _439
REMARK  168  A    between atoms: _438  and  _441
REMARK  169  A    between atoms: _444  and  _446
REMARK  170  A    between atoms: _446  and  _447
REMARK  171  A    between atoms: _446  and  _449
REMARK  172  A    between atoms: _449  and  _450
REMARK  173  A    between atoms: _453  and  _455
REMARK  174  A    between atoms: _455  and  _456
REMARK  175  A    between atoms: _455  and  _458
REMARK  176  A    between atoms: _458  and  _459
REMARK  177  A    between atoms: _462  and  _464
REMARK  178  A    between atoms: _464  and  _465
REMARK  179  A    between atoms: _464  and  _467
REMARK  180  A    between atoms: _467  and  _468
REMARK  181  A    between atoms: _471  and  _473
REMARK  182  A    between atoms: _473  and  _474
REMARK  183  A    between atoms: _476  and  _478
REMARK  184  A    between atoms: _478  and  _479
REMARK  185  A    between atoms: _478  and  _481
REMARK  186  A    between atoms: _481  and  _482
REMARK  187  A    between atoms: _482  and  _483
REMARK  188  A    between atoms: _486  and  _488
REMARK  189  A    between atoms: _488  and  _489
REMARK  190  A    between atoms: _488  and  _491
REMARK  191  A    between atoms: _491  and  _492
REMARK  192  A    between atoms: _495  and  _497
REMARK  193  A    between atoms: _497  and  _498
REMARK  194  A    between atoms: _497  and  _500
REMARK  195  A    between atoms: _500  and  _501
REMARK  196  A    between atoms: _507  and  _509
REMARK  197  A    between atoms: _509  and  _510
REMARK  198  A    between atoms: _509  and  _512
REMARK  199  A    between atoms: _512  and  _513
REMARK  200  A    between atoms: _518  and  _520
REMARK  201  A    between atoms: _520  and  _521
REMARK  202  A    between atoms: _520  and  _523
REMARK  203  A    between atoms: _523  and  _524
REMARK  204  A    between atoms: _529  and  _531
REMARK  205  A    between atoms: _531  and  _532
REMARK  206  A    between atoms: _531  and  _534
REMARK  207  A    between atoms: _534  and  _535
REMARK  208  A    between atoms: _538  and  _540
REMARK  209  A    between atoms: _540  and  _541
REMARK  210  A    between atoms: _540  and  _543
REMARK  211  A    between atoms: _543  and  _544
REMARK  212  A    between atoms: _549  and  _551
REMARK  213  A    between atoms: _551  and  _552
REMARK  214  A    between atoms: _551  and  _554
REMARK  215  A    between atoms: _554  and  _555
REMARK  216  A    between atoms: _555  and  _556
REMARK  217  A    between atoms: _556  and  _557
REMARK  218  A    between atoms: _566  and  _568
REMARK  219  A    between atoms: _568  and  _569
REMARK  220  A    between atoms: _571  and  _573
REMARK  221  A    between atoms: _573  and  _574
REMARK  222  A    between atoms: _573  and  _576
REMARK  223  A    between atoms: _576  and  _577
REMARK  224  A    between atoms: _582  and  _584
REMARK  225  A    between atoms: _584  and  _585
REMARK  226  A    between atoms: _587  and  _589
REMARK  227  A    between atoms: _589  and  _590
REMARK  228  A    between atoms: _593  and  _595
REMARK  229  A    between atoms: _595  and  _596
REMARK  230  A    between atoms: _598  and  _600
REMARK  231  A    between atoms: _600  and  _601
REMARK  232  A    between atoms: _600  and  _603
REMARK  233  A    between atoms: _603  and  _604
REMARK  234  A    between atoms: _604  and  _605
REMARK  235  A    between atoms: _605  and  _606
REMARK  236  A    between atoms: _615  and  _617
REMARK  237  A    between atoms: _617  and  _618
REMARK  238  A    between atoms: _617  and  _620
REMARK  239  A    between atoms: _620  and  _621
REMARK  240  A    between atoms: _624  and  _626
REMARK  241  A    between atoms: _626  and  _627
REMARK  242  A    between atoms: _626  and  _629
REMARK  243  A    between atoms: _629  and  _630
REMARK                            x       y       z     vdW  Elec       q    Type
REMARK                         _______ _______ _______ _____ _____    ______ ____
ROOT
ATOM      1  O   HOH     1       8.742  43.994  17.522  0.00  0.00    +0.000 OA
ENDROOT
TORSDOF 0
REMARK  Name = ../refined-set-2016/1ppi/1ppi_pocket.pdb
REMARK  243 active torsions:
REMARK  status: ('A' for Active; 'I' for Inactive)
REMARK    1  A    between atoms: _1  and  _3
REMARK    2  A    between atoms: _3  and  _4
REMARK    3  A    between atoms: _3  and  _6
REMARK    4  A    between atoms: _6  and  _7
REMARK    5  A    between atoms: _12  and  _14
REMARK    6  A    between atoms: _14  and  _15
REMARK    7  A    between atoms: _14  and  _17
REMARK    8  A    between atoms: _17  and  _18
REMARK    9  A    between atoms: _24  and  _26
REMARK   10  A    between atoms: _26  and  _27
REMARK   11  A    between atoms: _26  and  _29
REMARK   12  A    between atoms: _29  and  _30
REMARK   13  A    between atoms: _30  and  _31
REMARK   14  A    between atoms: _37  and  _38
REMARK   15  A    between atoms: _43  and  _45
REMARK   16  A    between atoms: _45  and  _46
REMARK   17  A    between atoms: _45  and  _48
REMARK   18  A    between atoms: _48  and  _49
REMARK   19  A    between atoms: _54  and  _56
REMARK   20  A    between atoms: _56  and  _57
REMARK   21  A    between atoms: _56  and  _59
REMARK   22  A    between atoms: _62  and  _64
REMARK   23  A    between atoms: _64  and  _65
REMARK   24  A    between atoms: _64  and  _67
REMARK   25  A    between atoms: _71  and  _72
REMARK   26  A    between atoms: _78  and  _79
REMARK   27  A    between atoms: _84  and  _86
REMARK   28  A    between atoms: _86  and  _87
REMARK   29  A    between atoms: _86  and  _89
REMARK   30  A    between atoms: _89  and  _90
REMARK   31  A    between atoms: _100  and  _102
REMARK   32  A    between atoms: _102  and  _103
REMARK   33  A    between atoms: _102  and  _105
REMARK   34  A    between atoms: _105  and  _106
REMARK   35  A    between atoms: _116  and  _118
REMARK   36  A    between atoms: _118  and  _119
REMARK   37  A    between atoms: _118  and  _121
REMARK   38  A    between atoms: _121  and  _122
REMARK   39  A    between atoms: _122  and  _123
REMARK   40  A    between atoms: _126  and  _128
REMARK   41  A    between atoms: _128  and  _129
REMARK   42  A    between atoms: _128  and  _131
REMARK   43  A    between atoms: _131  and  _132
REMARK   44  A    between atoms: _132  and  _133
REMARK   45  A    between atoms: _133  and  _134
REMARK   46  A    between atoms: _143  and  _145
REMARK   47  A    between atoms: _145  and  _146
REMARK   48  A    between atoms: _145  and  _148
REMARK   49  A    between atoms: _148  and  _149
REMARK   50  A    between atoms: _154  and  _155
REMARK   51  A    between atoms: _157  and  _159
REMARK   52  A    between atoms: _159  and  _160
REMARK   53  A    between atoms: _159  and  _162
REMARK   54  A    between atoms: _162  and  _163
REMARK   55  A    between atoms: _163  and  _164
REMARK   56  A    between atoms: _170  and  _171
REMARK   57  A    between atoms: _176  and  _178
REMARK   58  A    between atoms: _178  and  _179
REMARK   59  A    between atoms: _178  and  _181
REMARK   60  A    between atoms: _181  and  _182
REMARK   61  A    between atoms: _185  and  _187
REMARK   62  A    between atoms: _187  and  _188
REMARK   63  A    between atoms: _191  and  _193
REMARK   64  A    between atoms: _193  and  _194
REMARK   65  A    between atoms: _193  and  _196
REMARK   66  A    between atoms: _199  and  _201
REMARK   67  A    between atoms: _201  and  _202
REMARK   68  A    between atoms: _201  and  _204
REMARK   69  A    between atoms: _204  and  _205
REMARK   70  A    between atoms: _208  and  _210
REMARK   71  A    between atoms: _210  and  _211
REMARK   72  A    between atoms: _210  and  _213
REMARK   73  A    between atoms: _213  and  _214
REMARK   74  A    between atoms: _219  and  _221
REMARK   75  A    between atoms: _221  and  _222
REMARK   76  A    between atoms: _221  and  _224
REMARK   77  A    between atoms: _224  and  _225
REMARK   78  A    between atoms: _230  and  _232
REMARK   79  A    between atoms: _232  and  _233
REMARK   80  A    between atoms: _232  and  _235
REMARK   81  A    between atoms: _235  and  _236
REMARK   82  A    between atoms: _236  and  _237
REMARK   83  A    between atoms: _239  and  _241
REMARK   84  A    between atoms: _241  and  _242
REMARK   85  A    between atoms: _241  and  _244
REMARK   86  A    between atoms: _246  and  _248
REMARK   87  A    between atoms: _248  and  _249
REMARK   88  A    between atoms: _251  and  _253
REMARK   89  A    between atoms: _253  and  _254
REMARK   90  A    between atoms: _253  and  _256
REMARK   91  A    between atoms: _256  and  _257
REMARK   92  A    between atoms: _259  and  _261
REMARK   93  A    between atoms: _261  and  _262
REMARK   94  A    between atoms: _264  and  _266
REMARK   95  A    between atoms: _266  and  _267
REMARK   96  A    between atoms: _270  and  _272
REMARK   97  A    between atoms: _272  and  _273
REMARK   98  A    between atoms: _272  and  _275
REMARK   99  A    between atoms: _275  and  _276
REMARK  100  A    between atoms: _279  and  _281
REMARK  101  A    between atoms: _281  and  _282
REMARK  102  A    between atoms: _281  and  _284
REMARK  103  A    between atoms: _284  and  _285
REMARK  104  A    between atoms: _290  and  _291
REMARK  105  A    between atoms: _293  and  _295
REMARK  106  A    between atoms: _295  and  _296
REMARK  107  A    between atoms: _295  and  _298
REMARK  108  A    between atoms: _301  and  _303
REMARK  109  A    between atoms: _303  and  _304
REMARK  110  A    between atoms: _303  and  _306
REMARK  111  A    between atoms: _306  and  _307
REMARK  112  A    between atoms: _307  and  _308
REMARK  113  A    between atoms: _313  and  _315
REMARK  114  A    between atoms: _315  and  _316
REMARK  115  A    between atoms: _315  and  _318
REMARK  116  A    between atoms: _318  and  _319
REMARK  117  A    between atoms: _322  and  _324
REMARK  118  A    between atoms: _324  and  _325
REMARK  119  A    between atoms: _324  and  _327
REMARK  120  A    between atoms: _330  and  _332
REMARK  121  A    between atoms: _332  and  _333
REMARK  122  A    between atoms: _335  and  _337
REMARK  123  A    between atoms: _337  and  _338
REMARK  124  A    between atoms: _337  and  _340
REMARK  125  A    between atoms: _340  and  _341
REMARK  126  A    between atoms: _344  and  _346
REMARK  127  A    between atoms: _346  and  _347
REMARK  128  A    between atoms: _346  and  _349
REMARK  129  A    between atoms: _349  and  _350
REMARK  130  A    between atoms: _353  and  _355
REMARK  131  A    between atoms: _355  and  _356
REMARK  132  A    between atoms: _355  and  _358
REMARK  133  A    between atoms: _358  and  _359
REMARK  134  A    between atoms: _359  and  _360
REMARK  135  A    between atoms: _360  and  _361
REMARK  136  A    between atoms: _370  and  _372
REMARK  137  A    between atoms: _372  and  _373
REMARK  138  A    between atoms: _372  and  _375
REMARK  139  A    between atoms: _375  and  _376
REMARK  140  A    between atoms: _379  and  _381
REMARK  141  A    between atoms: _381  and  _382
REMARK  142  A    between atoms: _381  and  _384
REMARK  143  A    between atoms: _384  and  _385
REMARK  144  A    between atoms: _388  and  _390
REMARK  145  A    between atoms: _390  and  _391
REMARK  146  A    between atoms: _394  and  _396
REMARK  147  A    between atoms: _396  and  _397
REMARK  148  A    between atoms: _396  and  _399
REMARK  149  A    between atoms: _399  and  _400
REMARK  150  A    between atoms: _402  and  _404
REMARK  151  A    between atoms: _404  and  _405
REMARK  152  A    between atoms: _404  and  _407
REMARK  153  A    between atoms: _407  and  _408
REMARK  154  A    between atoms: _408  and  _409
REMARK  155  A    between atoms: _409  and  _410
REMARK  156  A    between atoms: _410  and  _411
REMARK  157  A    between atoms: _415  and  _417
REMARK  158  A    between atoms: _417  and  _418
REMARK  159  A    between atoms: _417  and  _420
REMARK  160  A    between atoms: _420  and  _421
REMARK  161  A    between atoms: _426  and  _428
REMARK  162  A    between atoms: _428  and  _429
REMARK  163  A    between atoms: _428  and  _431
REMARK  164  A    between atoms: _431  and  _432
REMARK  165  A    between atoms: _432  and  _433
REMARK  166  A    between atoms: _436  and  _438
REMARK  167  A    between atoms: _438  and  _439
REMARK  168  A    between atoms: _438  and  _441
REMARK  169  A    between atoms: _444  and  _446
REMARK  170  A    between atoms: _446  and  _447
REMARK  171  A    between atoms: _446  and  _449
REMARK  172  A    between atoms: _449  and  _450
REMARK  173  A    between atoms: _453  and  _455
REMARK  174  A    between atoms: _455  and  _456
REMARK  175  A    between atoms: _455  and  _458
REMARK  176  A    between atoms: _458  and  _459
REMARK  177  A    between atoms: _462  and  _464
REMARK  178  A    between atoms: _464  and  _465
REMARK  179  A    between atoms: _464  and  _467
REMARK  180  A    between atoms: _467  and  _468
REMARK  181  A    between atoms: _471  and  _473
REMARK  182  A    between atoms: _473  and  _474
REMARK  183  A    between atoms: _476  and  _478
REMARK  184  A    between atoms: _478  and  _479
REMARK  185  A    between atoms: _478  and  _481
REMARK  186  A    between atoms: _481  and  _482
REMARK  187  A    between atoms: _482  and  _483
REMARK  188  A    between atoms: _486  and  _488
REMARK  189  A    between atoms: _488  and  _489
REMARK  190  A    between atoms: _488  and  _491
REMARK  191  A    between atoms: _491  and  _492
REMARK  192  A    between atoms: _495  and  _497
REMARK  193  A    between atoms: _497  and  _498
REMARK  194  A    between atoms: _497  and  _500
REMARK  195  A    between atoms: _500  and  _501
REMARK  196  A    between atoms: _507  and  _509
REMARK  197  A    between atoms: _509  and  _510
REMARK  198  A    between atoms: _509  and  _512
REMARK  199  A    between atoms: _512  and  _513
REMARK  200  A    between atoms: _518  and  _520
REMARK  201  A    between atoms: _520  and  _521
REMARK  202  A    between atoms: _520  and  _523
REMARK  203  A    between atoms: _523  and  _524
REMARK  204  A    between atoms: _529  and  _531
REMARK  205  A    between atoms: _531  and  _532
REMARK  206  A    between atoms: _531  and  _534
REMARK  207  A    between atoms: _534  and  _535
REMARK  208  A    between atoms: _538  and  _540
REMARK  209  A    between atoms: _540  and  _541
REMARK  210  A    between atoms: _540  and  _543
REMARK  211  A    between atoms: _543  and  _544
REMARK  212  A    between atoms: _549  and  _551
REMARK  213  A    between atoms: _551  and  _552
REMARK  214  A    between atoms: _551  and  _554
REMARK  215  A    between atoms: _554  and  _555
REMARK  216  A    between atoms: _555  and  _556
REMARK  217  A    between atoms: _556  and  _557
REMARK  218  A    between atoms: _566  and  _568
REMARK  219  A    between atoms: _568  and  _569
REMARK  220  A    between atoms: _571  and  _573
REMARK  221  A    between atoms: _573  and  _574
REMARK  222  A    between atoms: _573  and  _576
REMARK  223  A    between atoms: _576  and  _577
REMARK  224  A    between atoms: _582  and  _584
REMARK  225  A    between atoms: _584  and  _585
REMARK  226  A    between atoms: _587  and  _589
REMARK  227  A    between atoms: _589  and  _590
REMARK  228  A    between atoms: _593  and  _595
REMARK  229  A    between atoms: _595  and  _596
REMARK  230  A    between atoms: _598  and  _600
REMARK  231  A    between atoms: _600  and  _601
REMARK  232  A    between atoms: _600  and  _603
REMARK  233  A    between atoms: _603  and  _604
REMARK  234  A    between atoms: _604  and  _605
REMARK  235  A    between atoms: _605  and  _606
REMARK  236  A    between atoms: _615  and  _617
REMARK  237  A    between atoms: _617  and  _618
REMARK  238  A    between atoms: _617  and  _620
REMARK  239  A    between atoms: _620  and  _621
REMARK  240  A    between atoms: _624  and  _626
REMARK  241  A    between atoms: _626  and  _627
REMARK  242  A    between atoms: _626  and  _629
REMARK  243  A    between atoms: _629  and  _630
REMARK                            x       y       z     vdW  Elec       q    Type
REMARK                         _______ _______ _______ _____ _____    ______ ____
ROOT
ATOM      1  O   HOH     1       8.702  45.280  22.289  0.00  0.00    +0.000 OA
ENDROOT
TORSDOF 0
REMARK  Name = ../refined-set-2016/1ppi/1ppi_pocket.pdb
REMARK  243 active torsions:
REMARK  status: ('A' for Active; 'I' for Inactive)
REMARK    1  A    between atoms: _1  and  _3
REMARK    2  A    between atoms: _3  and  _4
REMARK    3  A    between atoms: _3  and  _6
REMARK    4  A    between atoms: _6  and  _7
REMARK    5  A    between atoms: _12  and  _14
REMARK    6  A    between atoms: _14  and  _15
REMARK    7  A    between atoms: _14  and  _17
REMARK    8  A    between atoms: _17  and  _18
REMARK    9  A    between atoms: _24  and  _26
REMARK   10  A    between atoms: _26  and  _27
REMARK   11  A    between atoms: _26  and  _29
REMARK   12  A    between atoms: _29  and  _30
REMARK   13  A    between atoms: _30  and  _31
REMARK   14  A    between atoms: _37  and  _38
REMARK   15  A    between atoms: _43  and  _45
REMARK   16  A    between atoms: _45  and  _46
REMARK   17  A    between atoms: _45  and  _48
REMARK   18  A    between atoms: _48  and  _49
REMARK   19  A    between atoms: _54  and  _56
REMARK   20  A    between atoms: _56  and  _57
REMARK   21  A    between atoms: _56  and  _59
REMARK   22  A    between atoms: _62  and  _64
REMARK   23  A    between atoms: _64  and  _65
REMARK   24  A    between atoms: _64  and  _67
REMARK   25  A    between atoms: _71  and  _72
REMARK   26  A    between atoms: _78  and  _79
REMARK   27  A    between atoms: _84  and  _86
REMARK   28  A    between atoms: _86  and  _87
REMARK   29  A    between atoms: _86  and  _89
REMARK   30  A    between atoms: _89  and  _90
REMARK   31  A    between atoms: _100  and  _102
REMARK   32  A    between atoms: _102  and  _103
REMARK   33  A    between atoms: _102  and  _105
REMARK   34  A    between atoms: _105  and  _106
REMARK   35  A    between atoms: _116  and  _118
REMARK   36  A    between atoms: _118  and  _119
REMARK   37  A    between atoms: _118  and  _121
REMARK   38  A    between atoms: _121  and  _122
REMARK   39  A    between atoms: _122  and  _123
REMARK   40  A    between atoms: _126  and  _128
REMARK   41  A    between atoms: _128  and  _129
REMARK   42  A    between atoms: _128  and  _131
REMARK   43  A    between atoms: _131  and  _132
REMARK   44  A    between atoms: _132  and  _133
REMARK   45  A    between atoms: _133  and  _134
REMARK   46  A    between atoms: _143  and  _145
REMARK   47  A    between atoms: _145  and  _146
REMARK   48  A    between atoms: _145  and  _148
REMARK   49  A    between atoms: _148  and  _149
REMARK   50  A    between atoms: _154  and  _155
REMARK   51  A    between atoms: _157  and  _159
REMARK   52  A    between atoms: _159  and  _160
REMARK   53  A    between atoms: _159  and  _162
REMARK   54  A    between atoms: _162  and  _163
REMARK   55  A    between atoms: _163  and  _164
REMARK   56  A    between atoms: _170  and  _171
REMARK   57  A    between atoms: _176  and  _178
REMARK   58  A    between atoms: _178  and  _179
REMARK   59  A    between atoms: _178  and  _181
REMARK   60  A    between atoms: _181  and  _182
REMARK   61  A    between atoms: _185  and  _187
REMARK   62  A    between atoms: _187  and  _188
REMARK   63  A    between atoms: _191  and  _193
REMARK   64  A    between atoms: _193  and  _194
REMARK   65  A    between atoms: _193  and  _196
REMARK   66  A    between atoms: _199  and  _201
REMARK   67  A    between atoms: _201  and  _202
REMARK   68  A    between atoms: _201  and  _204
REMARK   69  A    between atoms: _204  and  _205
REMARK   70  A    between atoms: _208  and  _210
REMARK   71  A    between atoms: _210  and  _211
REMARK   72  A    between atoms: _210  and  _213
REMARK   73  A    between atoms: _213  and  _214
REMARK   74  A    between atoms: _219  and  _221
REMARK   75  A    between atoms: _221  and  _222
REMARK   76  A    between atoms: _221  and  _224
REMARK   77  A    between atoms: _224  and  _225
REMARK   78  A    between atoms: _230  and  _232
REMARK   79  A    between atoms: _232  and  _233
REMARK   80  A    between atoms: _232  and  _235
REMARK   81  A    between atoms: _235  and  _236
REMARK   82  A    between atoms: _236  and  _237
REMARK   83  A    between atoms: _239  and  _241
REMARK   84  A    between atoms: _241  and  _242
REMARK   85  A    between atoms: _241  and  _244
REMARK   86  A    between atoms: _246  and  _248
REMARK   87  A    between atoms: _248  and  _249
REMARK   88  A    between atoms: _251  and  _253
REMARK   89  A    between atoms: _253  and  _254
REMARK   90  A    between atoms: _253  and  _256
REMARK   91  A    between atoms: _256  and  _257
REMARK   92  A    between atoms: _259  and  _261
REMARK   93  A    between atoms: _261  and  _262
REMARK   94  A    between atoms: _264  and  _266
REMARK   95  A    between atoms: _266  and  _267
REMARK   96  A    between atoms: _270  and  _272
REMARK   97  A    between atoms: _272  and  _273
REMARK   98  A    between atoms: _272  and  _275
REMARK   99  A    between atoms: _275  and  _276
REMARK  100  A    between atoms: _279  and  _281
REMARK  101  A    between atoms: _281  and  _282
REMARK  102  A    between atoms: _281  and  _284
REMARK  103  A    between atoms: _284  and  _285
REMARK  104  A    between atoms: _290  and  _291
REMARK  105  A    between atoms: _293  and  _295
REMARK  106  A    between atoms: _295  and  _296
REMARK  107  A    between atoms: _295  and  _298
REMARK  108  A    between atoms: _301  and  _303
REMARK  109  A    between atoms: _303  and  _304
REMARK  110  A    between atoms: _303  and  _306
REMARK  111  A    between atoms: _306  and  _307
REMARK  112  A    between atoms: _307  and  _308
REMARK  113  A    between atoms: _313  and  _315
REMARK  114  A    between atoms: _315  and  _316
REMARK  115  A    between atoms: _315  and  _318
REMARK  116  A    between atoms: _318  and  _319
REMARK  117  A    between atoms: _322  and  _324
REMARK  118  A    between atoms: _324  and  _325
REMARK  119  A    between atoms: _324  and  _327
REMARK  120  A    between atoms: _330  and  _332
REMARK  121  A    between atoms: _332  and  _333
REMARK  122  A    between atoms: _335  and  _337
REMARK  123  A    between atoms: _337  and  _338
REMARK  124  A    between atoms: _337  and  _340
REMARK  125  A    between atoms: _340  and  _341
REMARK  126  A    between atoms: _344  and  _346
REMARK  127  A    between atoms: _346  and  _347
REMARK  128  A    between atoms: _346  and  _349
REMARK  129  A    between atoms: _349  and  _350
REMARK  130  A    between atoms: _353  and  _355
REMARK  131  A    between atoms: _355  and  _356
REMARK  132  A    between atoms: _355  and  _358
REMARK  133  A    between atoms: _358  and  _359
REMARK  134  A    between atoms: _359  and  _360
REMARK  135  A    between atoms: _360  and  _361
REMARK  136  A    between atoms: _370  and  _372
REMARK  137  A    between atoms: _372  and  _373
REMARK  138  A    between atoms: _372  and  _375
REMARK  139  A    between atoms: _375  and  _376
REMARK  140  A    between atoms: _379  and  _381
REMARK  141  A    between atoms: _381  and  _382
REMARK  142  A    between atoms: _381  and  _384
REMARK  143  A    between atoms: _384  and  _385
REMARK  144  A    between atoms: _388  and  _390
REMARK  145  A    between atoms: _390  and  _391
REMARK  146  A    between atoms: _394  and  _396
REMARK  147  A    between atoms: _396  and  _397
REMARK  148  A    between atoms: _396  and  _399
REMARK  149  A    between atoms: _399  and  _400
REMARK  150  A    between atoms: _402  and  _404
REMARK  151  A    between atoms: _404  and  _405
REMARK  152  A    between atoms: _404  and  _407
REMARK  153  A    between atoms: _407  and  _408
REMARK  154  A    between atoms: _408  and  _409
REMARK  155  A    between atoms: _409  and  _410
REMARK  156  A    between atoms: _410  and  _411
REMARK  157  A    between atoms: _415  and  _417
REMARK  158  A    between atoms: _417  and  _418
REMARK  159  A    between atoms: _417  and  _420
REMARK  160  A    between atoms: _420  and  _421
REMARK  161  A    between atoms: _426  and  _428
REMARK  162  A    between atoms: _428  and  _429
REMARK  163  A    between atoms: _428  and  _431
REMARK  164  A    between atoms: _431  and  _432
REMARK  165  A    between atoms: _432  and  _433
REMARK  166  A    between atoms: _436  and  _438
REMARK  167  A    between atoms: _438  and  _439
REMARK  168  A    between atoms: _438  and  _441
REMARK  169  A    between atoms: _444  and  _446
REMARK  170  A    between atoms: _446  and  _447
REMARK  171  A    between atoms: _446  and  _449
REMARK  172  A    between atoms: _449  and  _450
REMARK  173  A    between atoms: _453  and  _455
REMARK  174  A    between atoms: _455  and  _456
REMARK  175  A    between atoms: _455  and  _458
REMARK  176  A    between atoms: _458  and  _459
REMARK  177  A    between atoms: _462  and  _464
REMARK  178  A    between atoms: _464  and  _465
REMARK  179  A    between atoms: _464  and  _467
REMARK  180  A    between atoms: _467  and  _468
REMARK  181  A    between atoms: _471  and  _473
REMARK  182  A    between atoms: _473  and  _474
REMARK  183  A    between atoms: _476  and  _478
REMARK  184  A    between atoms: _478  and  _479
REMARK  185  A    between atoms: _478  and  _481
REMARK  186  A    between atoms: _481  and  _482
REMARK  187  A    between atoms: _482  and  _483
REMARK  188  A    between atoms: _486  and  _488
REMARK  189  A    between atoms: _488  and  _489
REMARK  190  A    between atoms: _488  and  _491
REMARK  191  A    between atoms: _491  and  _492
REMARK  192  A    between atoms: _495  and  _497
REMARK  193  A    between atoms: _497  and  _498
REMARK  194  A    between atoms: _497  and  _500
REMARK  195  A    between atoms: _500  and  _501
REMARK  196  A    between atoms: _507  and  _509
REMARK  197  A    between atoms: _509  and  _510
REMARK  198  A    between atoms: _509  and  _512
REMARK  199  A    between atoms: _512  and  _513
REMARK  200  A    between atoms: _518  and  _520
REMARK  201  A    between atoms: _520  and  _521
REMARK  202  A    between atoms: _520  and  _523
REMARK  203  A    between atoms: _523  and  _524
REMARK  204  A    between atoms: _529  and  _531
REMARK  205  A    between atoms: _531  and  _532
REMARK  206  A    between atoms: _531  and  _534
REMARK  207  A    between atoms: _534  and  _535
REMARK  208  A    between atoms: _538  and  _540
REMARK  209  A    between atoms: _540  and  _541
REMARK  210  A    between atoms: _540  and  _543
REMARK  211  A    between atoms: _543  and  _544
REMARK  212  A    between atoms: _549  and  _551
REMARK  213  A    between atoms: _551  and  _552
REMARK  214  A    between atoms: _551  and  _554
REMARK  215  A    between atoms: _554  and  _555
REMARK  216  A    between atoms: _555  and  _556
REMARK  217  A    between atoms: _556  and  _557
REMARK  218  A    between atoms: _566  and  _568
REMARK  219  A    between atoms: _568  and  _569
REMARK  220  A    between atoms: _571  and  _573
REMARK  221  A    between atoms: _573  and  _574
REMARK  222  A    between atoms: _573  and  _576
REMARK  223  A    between atoms: _576  and  _577
REMARK  224  A    between atoms: _582  and  _584
REMARK  225  A    between atoms: _584  and  _585
REMARK  226  A    between atoms: _587  and  _589
REMARK  227  A    between atoms: _589  and  _590
REMARK  228  A    between atoms: _593  and  _595
REMARK  229  A    between atoms: _595  and  _596
REMARK  230  A    between atoms: _598  and  _600
REMARK  231  A    between atoms: _600  and  _601
REMARK  232  A    between atoms: _600  and  _603
REMARK  233  A    between atoms: _603  and  _604
REMARK  234  A    between atoms: _604  and  _605
REMARK  235  A    between atoms: _605  and  _606
REMARK  236  A    between atoms: _615  and  _617
REMARK  237  A    between atoms: _617  and  _618
REMARK  238  A    between atoms: _617  and  _620
REMARK  239  A    between atoms: _620  and  _621
REMARK  240  A    between atoms: _624  and  _626
REMARK  241  A    between atoms: _626  and  _627
REMARK  242  A    between atoms: _626  and  _629
REMARK  243  A    between atoms: _629  and  _630
REMARK                            x       y       z     vdW  Elec       q    Type
REMARK                         _______ _______ _______ _____ _____    ______ ____
ROOT
ATOM      1  O   HOH     1      -7.111  52.332  16.834  0.00  0.00    +0.000 OA
ENDROOT
TORSDOF 0
REMARK  Name = ../refined-set-2016/1ppi/1ppi_pocket.pdb
REMARK  243 active torsions:
REMARK  status: ('A' for Active; 'I' for Inactive)
REMARK    1  A    between atoms: _1  and  _3
REMARK    2  A    between atoms: _3  and  _4
REMARK    3  A    between atoms: _3  and  _6
REMARK    4  A    between atoms: _6  and  _7
REMARK    5  A    between atoms: _12  and  _14
REMARK    6  A    between atoms: _14  and  _15
REMARK    7  A    between atoms: _14  and  _17
REMARK    8  A    between atoms: _17  and  _18
REMARK    9  A    between atoms: _24  and  _26
REMARK   10  A    between atoms: _26  and  _27
REMARK   11  A    between atoms: _26  and  _29
REMARK   12  A    between atoms: _29  and  _30
REMARK   13  A    between atoms: _30  and  _31
REMARK   14  A    between atoms: _37  and  _38
REMARK   15  A    between atoms: _43  and  _45
REMARK   16  A    between atoms: _45  and  _46
REMARK   17  A    between atoms: _45  and  _48
REMARK   18  A    between atoms: _48  and  _49
REMARK   19  A    between atoms: _54  and  _56
REMARK   20  A    between atoms: _56  and  _57
REMARK   21  A    between atoms: _56  and  _59
REMARK   22  A    between atoms: _62  and  _64
REMARK   23  A    between atoms: _64  and  _65
REMARK   24  A    between atoms: _64  and  _67
REMARK   25  A    between atoms: _71  and  _72
REMARK   26  A    between atoms: _78  and  _79
REMARK   27  A    between atoms: _84  and  _86
REMARK   28  A    between atoms: _86  and  _87
REMARK   29  A    between atoms: _86  and  _89
REMARK   30  A    between atoms: _89  and  _90
REMARK   31  A    between atoms: _100  and  _102
REMARK   32  A    between atoms: _102  and  _103
REMARK   33  A    between atoms: _102  and  _105
REMARK   34  A    between atoms: _105  and  _106
REMARK   35  A    between atoms: _116  and  _118
REMARK   36  A    between atoms: _118  and  _119
REMARK   37  A    between atoms: _118  and  _121
REMARK   38  A    between atoms: _121  and  _122
REMARK   39  A    between atoms: _122  and  _123
REMARK   40  A    between atoms: _126  and  _128
REMARK   41  A    between atoms: _128  and  _129
REMARK   42  A    between atoms: _128  and  _131
REMARK   43  A    between atoms: _131  and  _132
REMARK   44  A    between atoms: _132  and  _133
REMARK   45  A    between atoms: _133  and  _134
REMARK   46  A    between atoms: _143  and  _145
REMARK   47  A    between atoms: _145  and  _146
REMARK   48  A    between atoms: _145  and  _148
REMARK   49  A    between atoms: _148  and  _149
REMARK   50  A    between atoms: _154  and  _155
REMARK   51  A    between atoms: _157  and  _159
REMARK   52  A    between atoms: _159  and  _160
REMARK   53  A    between atoms: _159  and  _162
REMARK   54  A    between atoms: _162  and  _163
REMARK   55  A    between atoms: _163  and  _164
REMARK   56  A    between atoms: _170  and  _171
REMARK   57  A    between atoms: _176  and  _178
REMARK   58  A    between atoms: _178  and  _179
REMARK   59  A    between atoms: _178  and  _181
REMARK   60  A    between atoms: _181  and  _182
REMARK   61  A    between atoms: _185  and  _187
REMARK   62  A    between atoms: _187  and  _188
REMARK   63  A    between atoms: _191  and  _193
REMARK   64  A    between atoms: _193  and  _194
REMARK   65  A    between atoms: _193  and  _196
REMARK   66  A    between atoms: _199  and  _201
REMARK   67  A    between atoms: _201  and  _202
REMARK   68  A    between atoms: _201  and  _204
REMARK   69  A    between atoms: _204  and  _205
REMARK   70  A    between atoms: _208  and  _210
REMARK   71  A    between atoms: _210  and  _211
REMARK   72  A    between atoms: _210  and  _213
REMARK   73  A    between atoms: _213  and  _214
REMARK   74  A    between atoms: _219  and  _221
REMARK   75  A    between atoms: _221  and  _222
REMARK   76  A    between atoms: _221  and  _224
REMARK   77  A    between atoms: _224  and  _225
REMARK   78  A    between atoms: _230  and  _232
REMARK   79  A    between atoms: _232  and  _233
REMARK   80  A    between atoms: _232  and  _235
REMARK   81  A    between atoms: _235  and  _236
REMARK   82  A    between atoms: _236  and  _237
REMARK   83  A    between atoms: _239  and  _241
REMARK   84  A    between atoms: _241  and  _242
REMARK   85  A    between atoms: _241  and  _244
REMARK   86  A    between atoms: _246  and  _248
REMARK   87  A    between atoms: _248  and  _249
REMARK   88  A    between atoms: _251  and  _253
REMARK   89  A    between atoms: _253  and  _254
REMARK   90  A    between atoms: _253  and  _256
REMARK   91  A    between atoms: _256  and  _257
REMARK   92  A    between atoms: _259  and  _261
REMARK   93  A    between atoms: _261  and  _262
REMARK   94  A    between atoms: _264  and  _266
REMARK   95  A    between atoms: _266  and  _267
REMARK   96  A    between atoms: _270  and  _272
REMARK   97  A    between atoms: _272  and  _273
REMARK   98  A    between atoms: _272  and  _275
REMARK   99  A    between atoms: _275  and  _276
REMARK  100  A    between atoms: _279  and  _281
REMARK  101  A    between atoms: _281  and  _282
REMARK  102  A    between atoms: _281  and  _284
REMARK  103  A    between atoms: _284  and  _285
REMARK  104  A    between atoms: _290  and  _291
REMARK  105  A    between atoms: _293  and  _295
REMARK  106  A    between atoms: _295  and  _296
REMARK  107  A    between atoms: _295  and  _298
REMARK  108  A    between atoms: _301  and  _303
REMARK  109  A    between atoms: _303  and  _304
REMARK  110  A    between atoms: _303  and  _306
REMARK  111  A    between atoms: _306  and  _307
REMARK  112  A    between atoms: _307  and  _308
REMARK  113  A    between atoms: _313  and  _315
REMARK  114  A    between atoms: _315  and  _316
REMARK  115  A    between atoms: _315  and  _318
REMARK  116  A    between atoms: _318  and  _319
REMARK  117  A    between atoms: _322  and  _324
REMARK  118  A    between atoms: _324  and  _325
REMARK  119  A    between atoms: _324  and  _327
REMARK  120  A    between atoms: _330  and  _332
REMARK  121  A    between atoms: _332  and  _333
REMARK  122  A    between atoms: _335  and  _337
REMARK  123  A    between atoms: _337  and  _338
REMARK  124  A    between atoms: _337  and  _340
REMARK  125  A    between atoms: _340  and  _341
REMARK  126  A    between atoms: _344  and  _346
REMARK  127  A    between atoms: _346  and  _347
REMARK  128  A    between atoms: _346  and  _349
REMARK  129  A    between atoms: _349  and  _350
REMARK  130  A    between atoms: _353  and  _355
REMARK  131  A    between atoms: _355  and  _356
REMARK  132  A    between atoms: _355  and  _358
REMARK  133  A    between atoms: _358  and  _359
REMARK  134  A    between atoms: _359  and  _360
REMARK  135  A    between atoms: _360  and  _361
REMARK  136  A    between atoms: _370  and  _372
REMARK  137  A    between atoms: _372  and  _373
REMARK  138  A    between atoms: _372  and  _375
REMARK  139  A    between atoms: _375  and  _376
REMARK  140  A    between atoms: _379  and  _381
REMARK  141  A    between atoms: _381  and  _382
REMARK  142  A    between atoms: _381  and  _384
REMARK  143  A    between atoms: _384  and  _385
REMARK  144  A    between atoms: _388  and  _390
REMARK  145  A    between atoms: _390  and  _391
REMARK  146  A    between atoms: _394  and  _396
REMARK  147  A    between atoms: _396  and  _397
REMARK  148  A    between atoms: _396  and  _399
REMARK  149  A    between atoms: _399  and  _400
REMARK  150  A    between atoms: _402  and  _404
REMARK  151  A    between atoms: _404  and  _405
REMARK  152  A    between atoms: _404  and  _407
REMARK  153  A    between atoms: _407  and  _408
REMARK  154  A    between atoms: _408  and  _409
REMARK  155  A    between atoms: _409  and  _410
REMARK  156  A    between atoms: _410  and  _411
REMARK  157  A    between atoms: _415  and  _417
REMARK  158  A    between atoms: _417  and  _418
REMARK  159  A    between atoms: _417  and  _420
REMARK  160  A    between atoms: _420  and  _421
REMARK  161  A    between atoms: _426  and  _428
REMARK  162  A    between atoms: _428  and  _429
REMARK  163  A    between atoms: _428  and  _431
REMARK  164  A    between atoms: _431  and  _432
REMARK  165  A    between atoms: _432  and  _433
REMARK  166  A    between atoms: _436  and  _438
REMARK  167  A    between atoms: _438  and  _439
REMARK  168  A    between atoms: _438  and  _441
REMARK  169  A    between atoms: _444  and  _446
REMARK  170  A    between atoms: _446  and  _447
REMARK  171  A    between atoms: _446  and  _449
REMARK  172  A    between atoms: _449  and  _450
REMARK  173  A    between atoms: _453  and  _455
REMARK  174  A    between atoms: _455  and  _456
REMARK  175  A    between atoms: _455  and  _458
REMARK  176  A    between atoms: _458  and  _459
REMARK  177  A    between atoms: _462  and  _464
REMARK  178  A    between atoms: _464  and  _465
REMARK  179  A    between atoms: _464  and  _467
REMARK  180  A    between atoms: _467  and  _468
REMARK  181  A    between atoms: _471  and  _473
REMARK  182  A    between atoms: _473  and  _474
REMARK  183  A    between atoms: _476  and  _478
REMARK  184  A    between atoms: _478  and  _479
REMARK  185  A    between atoms: _478  and  _481
REMARK  186  A    between atoms: _481  and  _482
REMARK  187  A    between atoms: _482  and  _483
REMARK  188  A    between atoms: _486  and  _488
REMARK  189  A    between atoms: _488  and  _489
REMARK  190  A    between atoms: _488  and  _491
REMARK  191  A    between atoms: _491  and  _492
REMARK  192  A    between atoms: _495  and  _497
REMARK  193  A    between atoms: _497  and  _498
REMARK  194  A    between atoms: _497  and  _500
REMARK  195  A    between atoms: _500  and  _501
REMARK  196  A    between atoms: _507  and  _509
REMARK  197  A    between atoms: _509  and  _510
REMARK  198  A    between atoms: _509  and  _512
REMARK  199  A    between atoms: _512  and  _513
REMARK  200  A    between atoms: _518  and  _520
REMARK  201  A    between atoms: _520  and  _521
REMARK  202  A    between atoms: _520  and  _523
REMARK  203  A    between atoms: _523  and  _524
REMARK  204  A    between atoms: _529  and  _531
REMARK  205  A    between atoms: _531  and  _532
REMARK  206  A    between atoms: _531  and  _534
REMARK  207  A    between atoms: _534  and  _535
REMARK  208  A    between atoms: _538  and  _540
REMARK  209  A    between atoms: _540  and  _541
REMARK  210  A    between atoms: _540  and  _543
REMARK  211  A    between atoms: _543  and  _544
REMARK  212  A    between atoms: _549  and  _551
REMARK  213  A    between atoms: _551  and  _552
REMARK  214  A    between atoms: _551  and  _554
REMARK  215  A    between atoms: _554  and  _555
REMARK  216  A    between atoms: _555  and  _556
REMARK  217  A    between atoms: _556  and  _557
REMARK  218  A    between atoms: _566  and  _568
REMARK  219  A    between atoms: _568  and  _569
REMARK  220  A    between atoms: _571  and  _573
REMARK  221  A    between atoms: _573  and  _574
REMARK  222  A    between atoms: _573  and  _576
REMARK  223  A    between atoms: _576  and  _577
REMARK  224  A    between atoms: _582  and  _584
REMARK  225  A    between atoms: _584  and  _585
REMARK  226  A    between atoms: _587  and  _589
REMARK  227  A    between atoms: _589  and  _590
REMARK  228  A    between atoms: _593  and  _595
REMARK  229  A    between atoms: _595  and  _596
REMARK  230  A    between atoms: _598  and  _600
REMARK  231  A    between atoms: _600  and  _601
REMARK  232  A    between atoms: _600  and  _603
REMARK  233  A    between atoms: _603  and  _604
REMARK  234  A    between atoms: _604  and  _605
REMARK  235  A    between atoms: _605  and  _606
REMARK  236  A    between atoms: _615  and  _617
REMARK  237  A    between atoms: _617  and  _618
REMARK  238  A    between atoms: _617  and  _620
REMARK  239  A    between atoms: _620  and  _621
REMARK  240  A    between atoms: _624  and  _626
REMARK  241  A    between atoms: _626  and  _627
REMARK  242  A    between atoms: _626  and  _629
REMARK  243  A    between atoms: _629  and  _630
REMARK                            x       y       z     vdW  Elec       q    Type
REMARK                         _______ _______ _______ _____ _____    ______ ____
ROOT
ATOM      1  O   HOH     1       5.625  43.181  23.692  0.00  0.00    +0.000 OA
ENDROOT
TORSDOF 0
REMARK  Name = ../refined-set-2016/1ppi/1ppi_pocket.pdb
REMARK  243 active torsions:
REMARK  status: ('A' for Active; 'I' for Inactive)
REMARK    1  A    between atoms: _1  and  _3
REMARK    2  A    between atoms: _3  and  _4
REMARK    3  A    between atoms: _3  and  _6
REMARK    4  A    between atoms: _6  and  _7
REMARK    5  A    between atoms: _12  and  _14
REMARK    6  A    between atoms: _14  and  _15
REMARK    7  A    between atoms: _14  and  _17
REMARK    8  A    between atoms: _17  and  _18
REMARK    9  A    between atoms: _24  and  _26
REMARK   10  A    between atoms: _26  and  _27
REMARK   11  A    between atoms: _26  and  _29
REMARK   12  A    between atoms: _29  and  _30
REMARK   13  A    between atoms: _30  and  _31
REMARK   14  A    between atoms: _37  and  _38
REMARK   15  A    between atoms: _43  and  _45
REMARK   16  A    between atoms: _45  and  _46
REMARK   17  A    between atoms: _45  and  _48
REMARK   18  A    between atoms: _48  and  _49
REMARK   19  A    between atoms: _54  and  _56
REMARK   20  A    between atoms: _56  and  _57
REMARK   21  A    between atoms: _56  and  _59
REMARK   22  A    between atoms: _62  and  _64
REMARK   23  A    between atoms: _64  and  _65
REMARK   24  A    between atoms: _64  and  _67
REMARK   25  A    between atoms: _71  and  _72
REMARK   26  A    between atoms: _78  and  _79
REMARK   27  A    between atoms: _84  and  _86
REMARK   28  A    between atoms: _86  and  _87
REMARK   29  A    between atoms: _86  and  _89
REMARK   30  A    between atoms: _89  and  _90
REMARK   31  A    between atoms: _100  and  _102
REMARK   32  A    between atoms: _102  and  _103
REMARK   33  A    between atoms: _102  and  _105
REMARK   34  A    between atoms: _105  and  _106
REMARK   35  A    between atoms: _116  and  _118
REMARK   36  A    between atoms: _118  and  _119
REMARK   37  A    between atoms: _118  and  _121
REMARK   38  A    between atoms: _121  and  _122
REMARK   39  A    between atoms: _122  and  _123
REMARK   40  A    between atoms: _126  and  _128
REMARK   41  A    between atoms: _128  and  _129
REMARK   42  A    between atoms: _128  and  _131
REMARK   43  A    between atoms: _131  and  _132
REMARK   44  A    between atoms: _132  and  _133
REMARK   45  A    between atoms: _133  and  _134
REMARK   46  A    between atoms: _143  and  _145
REMARK   47  A    between atoms: _145  and  _146
REMARK   48  A    between atoms: _145  and  _148
REMARK   49  A    between atoms: _148  and  _149
REMARK   50  A    between atoms: _154  and  _155
REMARK   51  A    between atoms: _157  and  _159
REMARK   52  A    between atoms: _159  and  _160
REMARK   53  A    between atoms: _159  and  _162
REMARK   54  A    between atoms: _162  and  _163
REMARK   55  A    between atoms: _163  and  _164
REMARK   56  A    between atoms: _170  and  _171
REMARK   57  A    between atoms: _176  and  _178
REMARK   58  A    between atoms: _178  and  _179
REMARK   59  A    between atoms: _178  and  _181
REMARK   60  A    between atoms: _181  and  _182
REMARK   61  A    between atoms: _185  and  _187
REMARK   62  A    between atoms: _187  and  _188
REMARK   63  A    between atoms: _191  and  _193
REMARK   64  A    between atoms: _193  and  _194
REMARK   65  A    between atoms: _193  and  _196
REMARK   66  A    between atoms: _199  and  _201
REMARK   67  A    between atoms: _201  and  _202
REMARK   68  A    between atoms: _201  and  _204
REMARK   69  A    between atoms: _204  and  _205
REMARK   70  A    between atoms: _208  and  _210
REMARK   71  A    between atoms: _210  and  _211
REMARK   72  A    between atoms: _210  and  _213
REMARK   73  A    between atoms: _213  and  _214
REMARK   74  A    between atoms: _219  and  _221
REMARK   75  A    between atoms: _221  and  _222
REMARK   76  A    between atoms: _221  and  _224
REMARK   77  A    between atoms: _224  and  _225
REMARK   78  A    between atoms: _230  and  _232
REMARK   79  A    between atoms: _232  and  _233
REMARK   80  A    between atoms: _232  and  _235
REMARK   81  A    between atoms: _235  and  _236
REMARK   82  A    between atoms: _236  and  _237
REMARK   83  A    between atoms: _239  and  _241
REMARK   84  A    between atoms: _241  and  _242
REMARK   85  A    between atoms: _241  and  _244
REMARK   86  A    between atoms: _246  and  _248
REMARK   87  A    between atoms: _248  and  _249
REMARK   88  A    between atoms: _251  and  _253
REMARK   89  A    between atoms: _253  and  _254
REMARK   90  A    between atoms: _253  and  _256
REMARK   91  A    between atoms: _256  and  _257
REMARK   92  A    between atoms: _259  and  _261
REMARK   93  A    between atoms: _261  and  _262
REMARK   94  A    between atoms: _264  and  _266
REMARK   95  A    between atoms: _266  and  _267
REMARK   96  A    between atoms: _270  and  _272
REMARK   97  A    between atoms: _272  and  _273
REMARK   98  A    between atoms: _272  and  _275
REMARK   99  A    between atoms: _275  and  _276
REMARK  100  A    between atoms: _279  and  _281
REMARK  101  A    between atoms: _281  and  _282
REMARK  102  A    between atoms: _281  and  _284
REMARK  103  A    between atoms: _284  and  _285
REMARK  104  A    between atoms: _290  and  _291
REMARK  105  A    between atoms: _293  and  _295
REMARK  106  A    between atoms: _295  and  _296
REMARK  107  A    between atoms: _295  and  _298
REMARK  108  A    between atoms: _301  and  _303
REMARK  109  A    between atoms: _303  and  _304
REMARK  110  A    between atoms: _303  and  _306
REMARK  111  A    between atoms: _306  and  _307
REMARK  112  A    between atoms: _307  and  _308
REMARK  113  A    between atoms: _313  and  _315
REMARK  114  A    between atoms: _315  and  _316
REMARK  115  A    between atoms: _315  and  _318
REMARK  116  A    between atoms: _318  and  _319
REMARK  117  A    between atoms: _322  and  _324
REMARK  118  A    between atoms: _324  and  _325
REMARK  119  A    between atoms: _324  and  _327
REMARK  120  A    between atoms: _330  and  _332
REMARK  121  A    between atoms: _332  and  _333
REMARK  122  A    between atoms: _335  and  _337
REMARK  123  A    between atoms: _337  and  _338
REMARK  124  A    between atoms: _337  and  _340
REMARK  125  A    between atoms: _340  and  _341
REMARK  126  A    between atoms: _344  and  _346
REMARK  127  A    between atoms: _346  and  _347
REMARK  128  A    between atoms: _346  and  _349
REMARK  129  A    between atoms: _349  and  _350
REMARK  130  A    between atoms: _353  and  _355
REMARK  131  A    between atoms: _355  and  _356
REMARK  132  A    between atoms: _355  and  _358
REMARK  133  A    between atoms: _358  and  _359
REMARK  134  A    between atoms: _359  and  _360
REMARK  135  A    between atoms: _360  and  _361
REMARK  136  A    between atoms: _370  and  _372
REMARK  137  A    between atoms: _372  and  _373
REMARK  138  A    between atoms: _372  and  _375
REMARK  139  A    between atoms: _375  and  _376
REMARK  140  A    between atoms: _379  and  _381
REMARK  141  A    between atoms: _381  and  _382
REMARK  142  A    between atoms: _381  and  _384
REMARK  143  A    between atoms: _384  and  _385
REMARK  144  A    between atoms: _388  and  _390
REMARK  145  A    between atoms: _390  and  _391
REMARK  146  A    between atoms: _394  and  _396
REMARK  147  A    between atoms: _396  and  _397
REMARK  148  A    between atoms: _396  and  _399
REMARK  149  A    between atoms: _399  and  _400
REMARK  150  A    between atoms: _402  and  _404
REMARK  151  A    between atoms: _404  and  _405
REMARK  152  A    between atoms: _404  and  _407
REMARK  153  A    between atoms: _407  and  _408
REMARK  154  A    between atoms: _408  and  _409
REMARK  155  A    between atoms: _409  and  _410
REMARK  156  A    between atoms: _410  and  _411
REMARK  157  A    between atoms: _415  and  _417
REMARK  158  A    between atoms: _417  and  _418
REMARK  159  A    between atoms: _417  and  _420
REMARK  160  A    between atoms: _420  and  _421
REMARK  161  A    between atoms: _426  and  _428
REMARK  162  A    between atoms: _428  and  _429
REMARK  163  A    between atoms: _428  and  _431
REMARK  164  A    between atoms: _431  and  _432
REMARK  165  A    between atoms: _432  and  _433
REMARK  166  A    between atoms: _436  and  _438
REMARK  167  A    between atoms: _438  and  _439
REMARK  168  A    between atoms: _438  and  _441
REMARK  169  A    between atoms: _444  and  _446
REMARK  170  A    between atoms: _446  and  _447
REMARK  171  A    between atoms: _446  and  _449
REMARK  172  A    between atoms: _449  and  _450
REMARK  173  A    between atoms: _453  and  _455
REMARK  174  A    between atoms: _455  and  _456
REMARK  175  A    between atoms: _455  and  _458
REMARK  176  A    between atoms: _458  and  _459
REMARK  177  A    between atoms: _462  and  _464
REMARK  178  A    between atoms: _464  and  _465
REMARK  179  A    between atoms: _464  and  _467
REMARK  180  A    between atoms: _467  and  _468
REMARK  181  A    between atoms: _471  and  _473
REMARK  182  A    between atoms: _473  and  _474
REMARK  183  A    between atoms: _476  and  _478
REMARK  184  A    between atoms: _478  and  _479
REMARK  185  A    between atoms: _478  and  _481
REMARK  186  A    between atoms: _481  and  _482
REMARK  187  A    between atoms: _482  and  _483
REMARK  188  A    between atoms: _486  and  _488
REMARK  189  A    between atoms: _488  and  _489
REMARK  190  A    between atoms: _488  and  _491
REMARK  191  A    between atoms: _491  and  _492
REMARK  192  A    between atoms: _495  and  _497
REMARK  193  A    between atoms: _497  and  _498
REMARK  194  A    between atoms: _497  and  _500
REMARK  195  A    between atoms: _500  and  _501
REMARK  196  A    between atoms: _507  and  _509
REMARK  197  A    between atoms: _509  and  _510
REMARK  198  A    between atoms: _509  and  _512
REMARK  199  A    between atoms: _512  and  _513
REMARK  200  A    between atoms: _518  and  _520
REMARK  201  A    between atoms: _520  and  _521
REMARK  202  A    between atoms: _520  and  _523
REMARK  203  A    between atoms: _523  and  _524
REMARK  204  A    between atoms: _529  and  _531
REMARK  205  A    between atoms: _531  and  _532
REMARK  206  A    between atoms: _531  and  _534
REMARK  207  A    between atoms: _534  and  _535
REMARK  208  A    between atoms: _538  and  _540
REMARK  209  A    between atoms: _540  and  _541
REMARK  210  A    between atoms: _540  and  _543
REMARK  211  A    between atoms: _543  and  _544
REMARK  212  A    between atoms: _549  and  _551
REMARK  213  A    between atoms: _551  and  _552
REMARK  214  A    between atoms: _551  and  _554
REMARK  215  A    between atoms: _554  and  _555
REMARK  216  A    between atoms: _555  and  _556
REMARK  217  A    between atoms: _556  and  _557
REMARK  218  A    between atoms: _566  and  _568
REMARK  219  A    between atoms: _568  and  _569
REMARK  220  A    between atoms: _571  and  _573
REMARK  221  A    between atoms: _573  and  _574
REMARK  222  A    between atoms: _573  and  _576
REMARK  223  A    between atoms: _576  and  _577
REMARK  224  A    between atoms: _582  and  _584
REMARK  225  A    between atoms: _584  and  _585
REMARK  226  A    between atoms: _587  and  _589
REMARK  227  A    between atoms: _589  and  _590
REMARK  228  A    between atoms: _593  and  _595
REMARK  229  A    between atoms: _595  and  _596
REMARK  230  A    between atoms: _598  and  _600
REMARK  231  A    between atoms: _600  and  _601
REMARK  232  A    between atoms: _600  and  _603
REMARK  233  A    between atoms: _603  and  _604
REMARK  234  A    between atoms: _604  and  _605
REMARK  235  A    between atoms: _605  and  _606
REMARK  236  A    between atoms: _615  and  _617
REMARK  237  A    between atoms: _617  and  _618
REMARK  238  A    between atoms: _617  and  _620
REMARK  239  A    between atoms: _620  and  _621
REMARK  240  A    between atoms: _624  and  _626
REMARK  241  A    between atoms: _626  and  _627
REMARK  242  A    between atoms: _626  and  _629
REMARK  243  A    between atoms: _629  and  _630
REMARK                            x       y       z     vdW  Elec       q    Type
REMARK                         _______ _______ _______ _____ _____    ______ ____
ROOT
ATOM      1  O   HOH     1       4.260  43.566  13.130  0.00  0.00    +0.000 OA
ENDROOT
TORSDOF 0
REMARK  Name = ../refined-set-2016/1ppi/1ppi_pocket.pdb
REMARK  243 active torsions:
REMARK  status: ('A' for Active; 'I' for Inactive)
REMARK    1  A    between atoms: _1  and  _3
REMARK    2  A    between atoms: _3  and  _4
REMARK    3  A    between atoms: _3  and  _6
REMARK    4  A    between atoms: _6  and  _7
REMARK    5  A    between atoms: _12  and  _14
REMARK    6  A    between atoms: _14  and  _15
REMARK    7  A    between atoms: _14  and  _17
REMARK    8  A    between atoms: _17  and  _18
REMARK    9  A    between atoms: _24  and  _26
REMARK   10  A    between atoms: _26  and  _27
REMARK   11  A    between atoms: _26  and  _29
REMARK   12  A    between atoms: _29  and  _30
REMARK   13  A    between atoms: _30  and  _31
REMARK   14  A    between atoms: _37  and  _38
REMARK   15  A    between atoms: _43  and  _45
REMARK   16  A    between atoms: _45  and  _46
REMARK   17  A    between atoms: _45  and  _48
REMARK   18  A    between atoms: _48  and  _49
REMARK   19  A    between atoms: _54  and  _56
REMARK   20  A    between atoms: _56  and  _57
REMARK   21  A    between atoms: _56  and  _59
REMARK   22  A    between atoms: _62  and  _64
REMARK   23  A    between atoms: _64  and  _65
REMARK   24  A    between atoms: _64  and  _67
REMARK   25  A    between atoms: _71  and  _72
REMARK   26  A    between atoms: _78  and  _79
REMARK   27  A    between atoms: _84  and  _86
REMARK   28  A    between atoms: _86  and  _87
REMARK   29  A    between atoms: _86  and  _89
REMARK   30  A    between atoms: _89  and  _90
REMARK   31  A    between atoms: _100  and  _102
REMARK   32  A    between atoms: _102  and  _103
REMARK   33  A    between atoms: _102  and  _105
REMARK   34  A    between atoms: _105  and  _106
REMARK   35  A    between atoms: _116  and  _118
REMARK   36  A    between atoms: _118  and  _119
REMARK   37  A    between atoms: _118  and  _121
REMARK   38  A    between atoms: _121  and  _122
REMARK   39  A    between atoms: _122  and  _123
REMARK   40  A    between atoms: _126  and  _128
REMARK   41  A    between atoms: _128  and  _129
REMARK   42  A    between atoms: _128  and  _131
REMARK   43  A    between atoms: _131  and  _132
REMARK   44  A    between atoms: _132  and  _133
REMARK   45  A    between atoms: _133  and  _134
REMARK   46  A    between atoms: _143  and  _145
REMARK   47  A    between atoms: _145  and  _146
REMARK   48  A    between atoms: _145  and  _148
REMARK   49  A    between atoms: _148  and  _149
REMARK   50  A    between atoms: _154  and  _155
REMARK   51  A    between atoms: _157  and  _159
REMARK   52  A    between atoms: _159  and  _160
REMARK   53  A    between atoms: _159  and  _162
REMARK   54  A    between atoms: _162  and  _163
REMARK   55  A    between atoms: _163  and  _164
REMARK   56  A    between atoms: _170  and  _171
REMARK   57  A    between atoms: _176  and  _178
REMARK   58  A    between atoms: _178  and  _179
REMARK   59  A    between atoms: _178  and  _181
REMARK   60  A    between atoms: _181  and  _182
REMARK   61  A    between atoms: _185  and  _187
REMARK   62  A    between atoms: _187  and  _188
REMARK   63  A    between atoms: _191  and  _193
REMARK   64  A    between atoms: _193  and  _194
REMARK   65  A    between atoms: _193  and  _196
REMARK   66  A    between atoms: _199  and  _201
REMARK   67  A    between atoms: _201  and  _202
REMARK   68  A    between atoms: _201  and  _204
REMARK   69  A    between atoms: _204  and  _205
REMARK   70  A    between atoms: _208  and  _210
REMARK   71  A    between atoms: _210  and  _211
REMARK   72  A    between atoms: _210  and  _213
REMARK   73  A    between atoms: _213  and  _214
REMARK   74  A    between atoms: _219  and  _221
REMARK   75  A    between atoms: _221  and  _222
REMARK   76  A    between atoms: _221  and  _224
REMARK   77  A    between atoms: _224  and  _225
REMARK   78  A    between atoms: _230  and  _232
REMARK   79  A    between atoms: _232  and  _233
REMARK   80  A    between atoms: _232  and  _235
REMARK   81  A    between atoms: _235  and  _236
REMARK   82  A    between atoms: _236  and  _237
REMARK   83  A    between atoms: _239  and  _241
REMARK   84  A    between atoms: _241  and  _242
REMARK   85  A    between atoms: _241  and  _244
REMARK   86  A    between atoms: _246  and  _248
REMARK   87  A    between atoms: _248  and  _249
REMARK   88  A    between atoms: _251  and  _253
REMARK   89  A    between atoms: _253  and  _254
REMARK   90  A    between atoms: _253  and  _256
REMARK   91  A    between atoms: _256  and  _257
REMARK   92  A    between atoms: _259  and  _261
REMARK   93  A    between atoms: _261  and  _262
REMARK   94  A    between atoms: _264  and  _266
REMARK   95  A    between atoms: _266  and  _267
REMARK   96  A    between atoms: _270  and  _272
REMARK   97  A    between atoms: _272  and  _273
REMARK   98  A    between atoms: _272  and  _275
REMARK   99  A    between atoms: _275  and  _276
REMARK  100  A    between atoms: _279  and  _281
REMARK  101  A    between atoms: _281  and  _282
REMARK  102  A    between atoms: _281  and  _284
REMARK  103  A    between atoms: _284  and  _285
REMARK  104  A    between atoms: _290  and  _291
REMARK  105  A    between atoms: _293  and  _295
REMARK  106  A    between atoms: _295  and  _296
REMARK  107  A    between atoms: _295  and  _298
REMARK  108  A    between atoms: _301  and  _303
REMARK  109  A    between atoms: _303  and  _304
REMARK  110  A    between atoms: _303  and  _306
REMARK  111  A    between atoms: _306  and  _307
REMARK  112  A    between atoms: _307  and  _308
REMARK  113  A    between atoms: _313  and  _315
REMARK  114  A    between atoms: _315  and  _316
REMARK  115  A    between atoms: _315  and  _318
REMARK  116  A    between atoms: _318  and  _319
REMARK  117  A    between atoms: _322  and  _324
REMARK  118  A    between atoms: _324  and  _325
REMARK  119  A    between atoms: _324  and  _327
REMARK  120  A    between atoms: _330  and  _332
REMARK  121  A    between atoms: _332  and  _333
REMARK  122  A    between atoms: _335  and  _337
REMARK  123  A    between atoms: _337  and  _338
REMARK  124  A    between atoms: _337  and  _340
REMARK  125  A    between atoms: _340  and  _341
REMARK  126  A    between atoms: _344  and  _346
REMARK  127  A    between atoms: _346  and  _347
REMARK  128  A    between atoms: _346  and  _349
REMARK  129  A    between atoms: _349  and  _350
REMARK  130  A    between atoms: _353  and  _355
REMARK  131  A    between atoms: _355  and  _356
REMARK  132  A    between atoms: _355  and  _358
REMARK  133  A    between atoms: _358  and  _359
REMARK  134  A    between atoms: _359  and  _360
REMARK  135  A    between atoms: _360  and  _361
REMARK  136  A    between atoms: _370  and  _372
REMARK  137  A    between atoms: _372  and  _373
REMARK  138  A    between atoms: _372  and  _375
REMARK  139  A    between atoms: _375  and  _376
REMARK  140  A    between atoms: _379  and  _381
REMARK  141  A    between atoms: _381  and  _382
REMARK  142  A    between atoms: _381  and  _384
REMARK  143  A    between atoms: _384  and  _385
REMARK  144  A    between atoms: _388  and  _390
REMARK  145  A    between atoms: _390  and  _391
REMARK  146  A    between atoms: _394  and  _396
REMARK  147  A    between atoms: _396  and  _397
REMARK  148  A    between atoms: _396  and  _399
REMARK  149  A    between atoms: _399  and  _400
REMARK  150  A    between atoms: _402  and  _404
REMARK  151  A    between atoms: _404  and  _405
REMARK  152  A    between atoms: _404  and  _407
REMARK  153  A    between atoms: _407  and  _408
REMARK  154  A    between atoms: _408  and  _409
REMARK  155  A    between atoms: _409  and  _410
REMARK  156  A    between atoms: _410  and  _411
REMARK  157  A    between atoms: _415  and  _417
REMARK  158  A    between atoms: _417  and  _418
REMARK  159  A    between atoms: _417  and  _420
REMARK  160  A    between atoms: _420  and  _421
REMARK  161  A    between atoms: _426  and  _428
REMARK  162  A    between atoms: _428  and  _429
REMARK  163  A    between atoms: _428  and  _431
REMARK  164  A    between atoms: _431  and  _432
REMARK  165  A    between atoms: _432  and  _433
REMARK  166  A    between atoms: _436  and  _438
REMARK  167  A    between atoms: _438  and  _439
REMARK  168  A    between atoms: _438  and  _441
REMARK  169  A    between atoms: _444  and  _446
REMARK  170  A    between atoms: _446  and  _447
REMARK  171  A    between atoms: _446  and  _449
REMARK  172  A    between atoms: _449  and  _450
REMARK  173  A    between atoms: _453  and  _455
REMARK  174  A    between atoms: _455  and  _456
REMARK  175  A    between atoms: _455  and  _458
REMARK  176  A    between atoms: _458  and  _459
REMARK  177  A    between atoms: _462  and  _464
REMARK  178  A    between atoms: _464  and  _465
REMARK  179  A    between atoms: _464  and  _467
REMARK  180  A    between atoms: _467  and  _468
REMARK  181  A    between atoms: _471  and  _473
REMARK  182  A    between atoms: _473  and  _474
REMARK  183  A    between atoms: _476  and  _478
REMARK  184  A    between atoms: _478  and  _479
REMARK  185  A    between atoms: _478  and  _481
REMARK  186  A    between atoms: _481  and  _482
REMARK  187  A    between atoms: _482  and  _483
REMARK  188  A    between atoms: _486  and  _488
REMARK  189  A    between atoms: _488  and  _489
REMARK  190  A    between atoms: _488  and  _491
REMARK  191  A    between atoms: _491  and  _492
REMARK  192  A    between atoms: _495  and  _497
REMARK  193  A    between atoms: _497  and  _498
REMARK  194  A    between atoms: _497  and  _500
REMARK  195  A    between atoms: _500  and  _501
REMARK  196  A    between atoms: _507  and  _509
REMARK  197  A    between atoms: _509  and  _510
REMARK  198  A    between atoms: _509  and  _512
REMARK  199  A    between atoms: _512  and  _513
REMARK  200  A    between atoms: _518  and  _520
REMARK  201  A    between atoms: _520  and  _521
REMARK  202  A    between atoms: _520  and  _523
REMARK  203  A    between atoms: _523  and  _524
REMARK  204  A    between atoms: _529  and  _531
REMARK  205  A    between atoms: _531  and  _532
REMARK  206  A    between atoms: _531  and  _534
REMARK  207  A    between atoms: _534  and  _535
REMARK  208  A    between atoms: _538  and  _540
REMARK  209  A    between atoms: _540  and  _541
REMARK  210  A    between atoms: _540  and  _543
REMARK  211  A    between atoms: _543  and  _544
REMARK  212  A    between atoms: _549  and  _551
REMARK  213  A    between atoms: _551  and  _552
REMARK  214  A    between atoms: _551  and  _554
REMARK  215  A    between atoms: _554  and  _555
REMARK  216  A    between atoms: _555  and  _556
REMARK  217  A    between atoms: _556  and  _557
REMARK  218  A    between atoms: _566  and  _568
REMARK  219  A    between atoms: _568  and  _569
REMARK  220  A    between atoms: _571  and  _573
REMARK  221  A    between atoms: _573  and  _574
REMARK  222  A    between atoms: _573  and  _576
REMARK  223  A    between atoms: _576  and  _577
REMARK  224  A    between atoms: _582  and  _584
REMARK  225  A    between atoms: _584  and  _585
REMARK  226  A    between atoms: _587  and  _589
REMARK  227  A    between atoms: _589  and  _590
REMARK  228  A    between atoms: _593  and  _595
REMARK  229  A    between atoms: _595  and  _596
REMARK  230  A    between atoms: _598  and  _600
REMARK  231  A    between atoms: _600  and  _601
REMARK  232  A    between atoms: _600  and  _603
REMARK  233  A    between atoms: _603  and  _604
REMARK  234  A    between atoms: _604  and  _605
REMARK  235  A    between atoms: _605  and  _606
REMARK  236  A    between atoms: _615  and  _617
REMARK  237  A    between atoms: _617  and  _618
REMARK  238  A    between atoms: _617  and  _620
REMARK  239  A    between atoms: _620  and  _621
REMARK  240  A    between atoms: _624  and  _626
REMARK  241  A    between atoms: _626  and  _627
REMARK  242  A    between atoms: _626  and  _629
REMARK  243  A    between atoms: _629  and  _630
REMARK                            x       y       z     vdW  Elec       q    Type
REMARK                         _______ _______ _______ _____ _____    ______ ____
ROOT
ATOM      1  O   HOH     1      -2.633  50.979   3.348  0.00  0.00    +0.000 OA
ENDROOT
TORSDOF 0
REMARK  Name = ../refined-set-2016/1ppi/1ppi_pocket.pdb
REMARK  243 active torsions:
REMARK  status: ('A' for Active; 'I' for Inactive)
REMARK    1  A    between atoms: _1  and  _3
REMARK    2  A    between atoms: _3  and  _4
REMARK    3  A    between atoms: _3  and  _6
REMARK    4  A    between atoms: _6  and  _7
REMARK    5  A    between atoms: _12  and  _14
REMARK    6  A    between atoms: _14  and  _15
REMARK    7  A    between atoms: _14  and  _17
REMARK    8  A    between atoms: _17  and  _18
REMARK    9  A    between atoms: _24  and  _26
REMARK   10  A    between atoms: _26  and  _27
REMARK   11  A    between atoms: _26  and  _29
REMARK   12  A    between atoms: _29  and  _30
REMARK   13  A    between atoms: _30  and  _31
REMARK   14  A    between atoms: _37  and  _38
REMARK   15  A    between atoms: _43  and  _45
REMARK   16  A    between atoms: _45  and  _46
REMARK   17  A    between atoms: _45  and  _48
REMARK   18  A    between atoms: _48  and  _49
REMARK   19  A    between atoms: _54  and  _56
REMARK   20  A    between atoms: _56  and  _57
REMARK   21  A    between atoms: _56  and  _59
REMARK   22  A    between atoms: _62  and  _64
REMARK   23  A    between atoms: _64  and  _65
REMARK   24  A    between atoms: _64  and  _67
REMARK   25  A    between atoms: _71  and  _72
REMARK   26  A    between atoms: _78  and  _79
REMARK   27  A    between atoms: _84  and  _86
REMARK   28  A    between atoms: _86  and  _87
REMARK   29  A    between atoms: _86  and  _89
REMARK   30  A    between atoms: _89  and  _90
REMARK   31  A    between atoms: _100  and  _102
REMARK   32  A    between atoms: _102  and  _103
REMARK   33  A    between atoms: _102  and  _105
REMARK   34  A    between atoms: _105  and  _106
REMARK   35  A    between atoms: _116  and  _118
REMARK   36  A    between atoms: _118  and  _119
REMARK   37  A    between atoms: _118  and  _121
REMARK   38  A    between atoms: _121  and  _122
REMARK   39  A    between atoms: _122  and  _123
REMARK   40  A    between atoms: _126  and  _128
REMARK   41  A    between atoms: _128  and  _129
REMARK   42  A    between atoms: _128  and  _131
REMARK   43  A    between atoms: _131  and  _132
REMARK   44  A    between atoms: _132  and  _133
REMARK   45  A    between atoms: _133  and  _134
REMARK   46  A    between atoms: _143  and  _145
REMARK   47  A    between atoms: _145  and  _146
REMARK   48  A    between atoms: _145  and  _148
REMARK   49  A    between atoms: _148  and  _149
REMARK   50  A    between atoms: _154  and  _155
REMARK   51  A    between atoms: _157  and  _159
REMARK   52  A    between atoms: _159  and  _160
REMARK   53  A    between atoms: _159  and  _162
REMARK   54  A    between atoms: _162  and  _163
REMARK   55  A    between atoms: _163  and  _164
REMARK   56  A    between atoms: _170  and  _171
REMARK   57  A    between atoms: _176  and  _178
REMARK   58  A    between atoms: _178  and  _179
REMARK   59  A    between atoms: _178  and  _181
REMARK   60  A    between atoms: _181  and  _182
REMARK   61  A    between atoms: _185  and  _187
REMARK   62  A    between atoms: _187  and  _188
REMARK   63  A    between atoms: _191  and  _193
REMARK   64  A    between atoms: _193  and  _194
REMARK   65  A    between atoms: _193  and  _196
REMARK   66  A    between atoms: _199  and  _201
REMARK   67  A    between atoms: _201  and  _202
REMARK   68  A    between atoms: _201  and  _204
REMARK   69  A    between atoms: _204  and  _205
REMARK   70  A    between atoms: _208  and  _210
REMARK   71  A    between atoms: _210  and  _211
REMARK   72  A    between atoms: _210  and  _213
REMARK   73  A    between atoms: _213  and  _214
REMARK   74  A    between atoms: _219  and  _221
REMARK   75  A    between atoms: _221  and  _222
REMARK   76  A    between atoms: _221  and  _224
REMARK   77  A    between atoms: _224  and  _225
REMARK   78  A    between atoms: _230  and  _232
REMARK   79  A    between atoms: _232  and  _233
REMARK   80  A    between atoms: _232  and  _235
REMARK   81  A    between atoms: _235  and  _236
REMARK   82  A    between atoms: _236  and  _237
REMARK   83  A    between atoms: _239  and  _241
REMARK   84  A    between atoms: _241  and  _242
REMARK   85  A    between atoms: _241  and  _244
REMARK   86  A    between atoms: _246  and  _248
REMARK   87  A    between atoms: _248  and  _249
REMARK   88  A    between atoms: _251  and  _253
REMARK   89  A    between atoms: _253  and  _254
REMARK   90  A    between atoms: _253  and  _256
REMARK   91  A    between atoms: _256  and  _257
REMARK   92  A    between atoms: _259  and  _261
REMARK   93  A    between atoms: _261  and  _262
REMARK   94  A    between atoms: _264  and  _266
REMARK   95  A    between atoms: _266  and  _267
REMARK   96  A    between atoms: _270  and  _272
REMARK   97  A    between atoms: _272  and  _273
REMARK   98  A    between atoms: _272  and  _275
REMARK   99  A    between atoms: _275  and  _276
REMARK  100  A    between atoms: _279  and  _281
REMARK  101  A    between atoms: _281  and  _282
REMARK  102  A    between atoms: _281  and  _284
REMARK  103  A    between atoms: _284  and  _285
REMARK  104  A    between atoms: _290  and  _291
REMARK  105  A    between atoms: _293  and  _295
REMARK  106  A    between atoms: _295  and  _296
REMARK  107  A    between atoms: _295  and  _298
REMARK  108  A    between atoms: _301  and  _303
REMARK  109  A    between atoms: _303  and  _304
REMARK  110  A    between atoms: _303  and  _306
REMARK  111  A    between atoms: _306  and  _307
REMARK  112  A    between atoms: _307  and  _308
REMARK  113  A    between atoms: _313  and  _315
REMARK  114  A    between atoms: _315  and  _316
REMARK  115  A    between atoms: _315  and  _318
REMARK  116  A    between atoms: _318  and  _319
REMARK  117  A    between atoms: _322  and  _324
REMARK  118  A    between atoms: _324  and  _325
REMARK  119  A    between atoms: _324  and  _327
REMARK  120  A    between atoms: _330  and  _332
REMARK  121  A    between atoms: _332  and  _333
REMARK  122  A    between atoms: _335  and  _337
REMARK  123  A    between atoms: _337  and  _338
REMARK  124  A    between atoms: _337  and  _340
REMARK  125  A    between atoms: _340  and  _341
REMARK  126  A    between atoms: _344  and  _346
REMARK  127  A    between atoms: _346  and  _347
REMARK  128  A    between atoms: _346  and  _349
REMARK  129  A    between atoms: _349  and  _350
REMARK  130  A    between atoms: _353  and  _355
REMARK  131  A    between atoms: _355  and  _356
REMARK  132  A    between atoms: _355  and  _358
REMARK  133  A    between atoms: _358  and  _359
REMARK  134  A    between atoms: _359  and  _360
REMARK  135  A    between atoms: _360  and  _361
REMARK  136  A    between atoms: _370  and  _372
REMARK  137  A    between atoms: _372  and  _373
REMARK  138  A    between atoms: _372  and  _375
REMARK  139  A    between atoms: _375  and  _376
REMARK  140  A    between atoms: _379  and  _381
REMARK  141  A    between atoms: _381  and  _382
REMARK  142  A    between atoms: _381  and  _384
REMARK  143  A    between atoms: _384  and  _385
REMARK  144  A    between atoms: _388  and  _390
REMARK  145  A    between atoms: _390  and  _391
REMARK  146  A    between atoms: _394  and  _396
REMARK  147  A    between atoms: _396  and  _397
REMARK  148  A    between atoms: _396  and  _399
REMARK  149  A    between atoms: _399  and  _400
REMARK  150  A    between atoms: _402  and  _404
REMARK  151  A    between atoms: _404  and  _405
REMARK  152  A    between atoms: _404  and  _407
REMARK  153  A    between atoms: _407  and  _408
REMARK  154  A    between atoms: _408  and  _409
REMARK  155  A    between atoms: _409  and  _410
REMARK  156  A    between atoms: _410  and  _411
REMARK  157  A    between atoms: _415  and  _417
REMARK  158  A    between atoms: _417  and  _418
REMARK  159  A    between atoms: _417  and  _420
REMARK  160  A    between atoms: _420  and  _421
REMARK  161  A    between atoms: _426  and  _428
REMARK  162  A    between atoms: _428  and  _429
REMARK  163  A    between atoms: _428  and  _431
REMARK  164  A    between atoms: _431  and  _432
REMARK  165  A    between atoms: _432  and  _433
REMARK  166  A    between atoms: _436  and  _438
REMARK  167  A    between atoms: _438  and  _439
REMARK  168  A    between atoms: _438  and  _441
REMARK  169  A    between atoms: _444  and  _446
REMARK  170  A    between atoms: _446  and  _447
REMARK  171  A    between atoms: _446  and  _449
REMARK  172  A    between atoms: _449  and  _450
REMARK  173  A    between atoms: _453  and  _455
REMARK  174  A    between atoms: _455  and  _456
REMARK  175  A    between atoms: _455  and  _458
REMARK  176  A    between atoms: _458  and  _459
REMARK  177  A    between atoms: _462  and  _464
REMARK  178  A    between atoms: _464  and  _465
REMARK  179  A    between atoms: _464  and  _467
REMARK  180  A    between atoms: _467  and  _468
REMARK  181  A    between atoms: _471  and  _473
REMARK  182  A    between atoms: _473  and  _474
REMARK  183  A    between atoms: _476  and  _478
REMARK  184  A    between atoms: _478  and  _479
REMARK  185  A    between atoms: _478  and  _481
REMARK  186  A    between atoms: _481  and  _482
REMARK  187  A    between atoms: _482  and  _483
REMARK  188  A    between atoms: _486  and  _488
REMARK  189  A    between atoms: _488  and  _489
REMARK  190  A    between atoms: _488  and  _491
REMARK  191  A    between atoms: _491  and  _492
REMARK  192  A    between atoms: _495  and  _497
REMARK  193  A    between atoms: _497  and  _498
REMARK  194  A    between atoms: _497  and  _500
REMARK  195  A    between atoms: _500  and  _501
REMARK  196  A    between atoms: _507  and  _509
REMARK  197  A    between atoms: _509  and  _510
REMARK  198  A    between atoms: _509  and  _512
REMARK  199  A    between atoms: _512  and  _513
REMARK  200  A    between atoms: _518  and  _520
REMARK  201  A    between atoms: _520  and  _521
REMARK  202  A    between atoms: _520  and  _523
REMARK  203  A    between atoms: _523  and  _524
REMARK  204  A    between atoms: _529  and  _531
REMARK  205  A    between atoms: _531  and  _532
REMARK  206  A    between atoms: _531  and  _534
REMARK  207  A    between atoms: _534  and  _535
REMARK  208  A    between atoms: _538  and  _540
REMARK  209  A    between atoms: _540  and  _541
REMARK  210  A    between atoms: _540  and  _543
REMARK  211  A    between atoms: _543  and  _544
REMARK  212  A    between atoms: _549  and  _551
REMARK  213  A    between atoms: _551  and  _552
REMARK  214  A    between atoms: _551  and  _554
REMARK  215  A    between atoms: _554  and  _555
REMARK  216  A    between atoms: _555  and  _556
REMARK  217  A    between atoms: _556  and  _557
REMARK  218  A    between atoms: _566  and  _568
REMARK  219  A    between atoms: _568  and  _569
REMARK  220  A    between atoms: _571  and  _573
REMARK  221  A    between atoms: _573  and  _574
REMARK  222  A    between atoms: _573  and  _576
REMARK  223  A    between atoms: _576  and  _577
REMARK  224  A    between atoms: _582  and  _584
REMARK  225  A    between atoms: _584  and  _585
REMARK  226  A    between atoms: _587  and  _589
REMARK  227  A    between atoms: _589  and  _590
REMARK  228  A    between atoms: _593  and  _595
REMARK  229  A    between atoms: _595  and  _596
REMARK  230  A    between atoms: _598  and  _600
REMARK  231  A    between atoms: _600  and  _601
REMARK  232  A    between atoms: _600  and  _603
REMARK  233  A    between atoms: _603  and  _604
REMARK  234  A    between atoms: _604  and  _605
REMARK  235  A    between atoms: _605  and  _606
REMARK  236  A    between atoms: _615  and  _617
REMARK  237  A    between atoms: _617  and  _618
REMARK  238  A    between atoms: _617  and  _620
REMARK  239  A    between atoms: _620  and  _621
REMARK  240  A    between atoms: _624  and  _626
REMARK  241  A    between atoms: _626  and  _627
REMARK  242  A    between atoms: _626  and  _629
REMARK  243  A    between atoms: _629  and  _630
REMARK                            x       y       z     vdW  Elec       q    Type
REMARK                         _______ _______ _______ _____ _____    ______ ____
ROOT
ATOM      1  O   HOH     1       1.612  49.420   0.077  0.00  0.00    +0.000 OA
ENDROOT
TORSDOF 0
REMARK  Name = ../refined-set-2016/1ppi/1ppi_pocket.pdb
REMARK  243 active torsions:
REMARK  status: ('A' for Active; 'I' for Inactive)
REMARK    1  A    between atoms: _1  and  _3
REMARK    2  A    between atoms: _3  and  _4
REMARK    3  A    between atoms: _3  and  _6
REMARK    4  A    between atoms: _6  and  _7
REMARK    5  A    between atoms: _12  and  _14
REMARK    6  A    between atoms: _14  and  _15
REMARK    7  A    between atoms: _14  and  _17
REMARK    8  A    between atoms: _17  and  _18
REMARK    9  A    between atoms: _24  and  _26
REMARK   10  A    between atoms: _26  and  _27
REMARK   11  A    between atoms: _26  and  _29
REMARK   12  A    between atoms: _29  and  _30
REMARK   13  A    between atoms: _30  and  _31
REMARK   14  A    between atoms: _37  and  _38
REMARK   15  A    between atoms: _43  and  _45
REMARK   16  A    between atoms: _45  and  _46
REMARK   17  A    between atoms: _45  and  _48
REMARK   18  A    between atoms: _48  and  _49
REMARK   19  A    between atoms: _54  and  _56
REMARK   20  A    between atoms: _56  and  _57
REMARK   21  A    between atoms: _56  and  _59
REMARK   22  A    between atoms: _62  and  _64
REMARK   23  A    between atoms: _64  and  _65
REMARK   24  A    between atoms: _64  and  _67
REMARK   25  A    between atoms: _71  and  _72
REMARK   26  A    between atoms: _78  and  _79
REMARK   27  A    between atoms: _84  and  _86
REMARK   28  A    between atoms: _86  and  _87
REMARK   29  A    between atoms: _86  and  _89
REMARK   30  A    between atoms: _89  and  _90
REMARK   31  A    between atoms: _100  and  _102
REMARK   32  A    between atoms: _102  and  _103
REMARK   33  A    between atoms: _102  and  _105
REMARK   34  A    between atoms: _105  and  _106
REMARK   35  A    between atoms: _116  and  _118
REMARK   36  A    between atoms: _118  and  _119
REMARK   37  A    between atoms: _118  and  _121
REMARK   38  A    between atoms: _121  and  _122
REMARK   39  A    between atoms: _122  and  _123
REMARK   40  A    between atoms: _126  and  _128
REMARK   41  A    between atoms: _128  and  _129
REMARK   42  A    between atoms: _128  and  _131
REMARK   43  A    between atoms: _131  and  _132
REMARK   44  A    between atoms: _132  and  _133
REMARK   45  A    between atoms: _133  and  _134
REMARK   46  A    between atoms: _143  and  _145
REMARK   47  A    between atoms: _145  and  _146
REMARK   48  A    between atoms: _145  and  _148
REMARK   49  A    between atoms: _148  and  _149
REMARK   50  A    between atoms: _154  and  _155
REMARK   51  A    between atoms: _157  and  _159
REMARK   52  A    between atoms: _159  and  _160
REMARK   53  A    between atoms: _159  and  _162
REMARK   54  A    between atoms: _162  and  _163
REMARK   55  A    between atoms: _163  and  _164
REMARK   56  A    between atoms: _170  and  _171
REMARK   57  A    between atoms: _176  and  _178
REMARK   58  A    between atoms: _178  and  _179
REMARK   59  A    between atoms: _178  and  _181
REMARK   60  A    between atoms: _181  and  _182
REMARK   61  A    between atoms: _185  and  _187
REMARK   62  A    between atoms: _187  and  _188
REMARK   63  A    between atoms: _191  and  _193
REMARK   64  A    between atoms: _193  and  _194
REMARK   65  A    between atoms: _193  and  _196
REMARK   66  A    between atoms: _199  and  _201
REMARK   67  A    between atoms: _201  and  _202
REMARK   68  A    between atoms: _201  and  _204
REMARK   69  A    between atoms: _204  and  _205
REMARK   70  A    between atoms: _208  and  _210
REMARK   71  A    between atoms: _210  and  _211
REMARK   72  A    between atoms: _210  and  _213
REMARK   73  A    between atoms: _213  and  _214
REMARK   74  A    between atoms: _219  and  _221
REMARK   75  A    between atoms: _221  and  _222
REMARK   76  A    between atoms: _221  and  _224
REMARK   77  A    between atoms: _224  and  _225
REMARK   78  A    between atoms: _230  and  _232
REMARK   79  A    between atoms: _232  and  _233
REMARK   80  A    between atoms: _232  and  _235
REMARK   81  A    between atoms: _235  and  _236
REMARK   82  A    between atoms: _236  and  _237
REMARK   83  A    between atoms: _239  and  _241
REMARK   84  A    between atoms: _241  and  _242
REMARK   85  A    between atoms: _241  and  _244
REMARK   86  A    between atoms: _246  and  _248
REMARK   87  A    between atoms: _248  and  _249
REMARK   88  A    between atoms: _251  and  _253
REMARK   89  A    between atoms: _253  and  _254
REMARK   90  A    between atoms: _253  and  _256
REMARK   91  A    between atoms: _256  and  _257
REMARK   92  A    between atoms: _259  and  _261
REMARK   93  A    between atoms: _261  and  _262
REMARK   94  A    between atoms: _264  and  _266
REMARK   95  A    between atoms: _266  and  _267
REMARK   96  A    between atoms: _270  and  _272
REMARK   97  A    between atoms: _272  and  _273
REMARK   98  A    between atoms: _272  and  _275
REMARK   99  A    between atoms: _275  and  _276
REMARK  100  A    between atoms: _279  and  _281
REMARK  101  A    between atoms: _281  and  _282
REMARK  102  A    between atoms: _281  and  _284
REMARK  103  A    between atoms: _284  and  _285
REMARK  104  A    between atoms: _290  and  _291
REMARK  105  A    between atoms: _293  and  _295
REMARK  106  A    between atoms: _295  and  _296
REMARK  107  A    between atoms: _295  and  _298
REMARK  108  A    between atoms: _301  and  _303
REMARK  109  A    between atoms: _303  and  _304
REMARK  110  A    between atoms: _303  and  _306
REMARK  111  A    between atoms: _306  and  _307
REMARK  112  A    between atoms: _307  and  _308
REMARK  113  A    between atoms: _313  and  _315
REMARK  114  A    between atoms: _315  and  _316
REMARK  115  A    between atoms: _315  and  _318
REMARK  116  A    between atoms: _318  and  _319
REMARK  117  A    between atoms: _322  and  _324
REMARK  118  A    between atoms: _324  and  _325
REMARK  119  A    between atoms: _324  and  _327
REMARK  120  A    between atoms: _330  and  _332
REMARK  121  A    between atoms: _332  and  _333
REMARK  122  A    between atoms: _335  and  _337
REMARK  123  A    between atoms: _337  and  _338
REMARK  124  A    between atoms: _337  and  _340
REMARK  125  A    between atoms: _340  and  _341
REMARK  126  A    between atoms: _344  and  _346
REMARK  127  A    between atoms: _346  and  _347
REMARK  128  A    between atoms: _346  and  _349
REMARK  129  A    between atoms: _349  and  _350
REMARK  130  A    between atoms: _353  and  _355
REMARK  131  A    between atoms: _355  and  _356
REMARK  132  A    between atoms: _355  and  _358
REMARK  133  A    between atoms: _358  and  _359
REMARK  134  A    between atoms: _359  and  _360
REMARK  135  A    between atoms: _360  and  _361
REMARK  136  A    between atoms: _370  and  _372
REMARK  137  A    between atoms: _372  and  _373
REMARK  138  A    between atoms: _372  and  _375
REMARK  139  A    between atoms: _375  and  _376
REMARK  140  A    between atoms: _379  and  _381
REMARK  141  A    between atoms: _381  and  _382
REMARK  142  A    between atoms: _381  and  _384
REMARK  143  A    between atoms: _384  and  _385
REMARK  144  A    between atoms: _388  and  _390
REMARK  145  A    between atoms: _390  and  _391
REMARK  146  A    between atoms: _394  and  _396
REMARK  147  A    between atoms: _396  and  _397
REMARK  148  A    between atoms: _396  and  _399
REMARK  149  A    between atoms: _399  and  _400
REMARK  150  A    between atoms: _402  and  _404
REMARK  151  A    between atoms: _404  and  _405
REMARK  152  A    between atoms: _404  and  _407
REMARK  153  A    between atoms: _407  and  _408
REMARK  154  A    between atoms: _408  and  _409
REMARK  155  A    between atoms: _409  and  _410
REMARK  156  A    between atoms: _410  and  _411
REMARK  157  A    between atoms: _415  and  _417
REMARK  158  A    between atoms: _417  and  _418
REMARK  159  A    between atoms: _417  and  _420
REMARK  160  A    between atoms: _420  and  _421
REMARK  161  A    between atoms: _426  and  _428
REMARK  162  A    between atoms: _428  and  _429
REMARK  163  A    between atoms: _428  and  _431
REMARK  164  A    between atoms: _431  and  _432
REMARK  165  A    between atoms: _432  and  _433
REMARK  166  A    between atoms: _436  and  _438
REMARK  167  A    between atoms: _438  and  _439
REMARK  168  A    between atoms: _438  and  _441
REMARK  169  A    between atoms: _444  and  _446
REMARK  170  A    between atoms: _446  and  _447
REMARK  171  A    between atoms: _446  and  _449
REMARK  172  A    between atoms: _449  and  _450
REMARK  173  A    between atoms: _453  and  _455
REMARK  174  A    between atoms: _455  and  _456
REMARK  175  A    between atoms: _455  and  _458
REMARK  176  A    between atoms: _458  and  _459
REMARK  177  A    between atoms: _462  and  _464
REMARK  178  A    between atoms: _464  and  _465
REMARK  179  A    between atoms: _464  and  _467
REMARK  180  A    between atoms: _467  and  _468
REMARK  181  A    between atoms: _471  and  _473
REMARK  182  A    between atoms: _473  and  _474
REMARK  183  A    between atoms: _476  and  _478
REMARK  184  A    between atoms: _478  and  _479
REMARK  185  A    between atoms: _478  and  _481
REMARK  186  A    between atoms: _481  and  _482
REMARK  187  A    between atoms: _482  and  _483
REMARK  188  A    between atoms: _486  and  _488
REMARK  189  A    between atoms: _488  and  _489
REMARK  190  A    between atoms: _488  and  _491
REMARK  191  A    between atoms: _491  and  _492
REMARK  192  A    between atoms: _495  and  _497
REMARK  193  A    between atoms: _497  and  _498
REMARK  194  A    between atoms: _497  and  _500
REMARK  195  A    between atoms: _500  and  _501
REMARK  196  A    between atoms: _507  and  _509
REMARK  197  A    between atoms: _509  and  _510
REMARK  198  A    between atoms: _509  and  _512
REMARK  199  A    between atoms: _512  and  _513
REMARK  200  A    between atoms: _518  and  _520
REMARK  201  A    between atoms: _520  and  _521
REMARK  202  A    between atoms: _520  and  _523
REMARK  203  A    between atoms: _523  and  _524
REMARK  204  A    between atoms: _529  and  _531
REMARK  205  A    between atoms: _531  and  _532
REMARK  206  A    between atoms: _531  and  _534
REMARK  207  A    between atoms: _534  and  _535
REMARK  208  A    between atoms: _538  and  _540
REMARK  209  A    between atoms: _540  and  _541
REMARK  210  A    between atoms: _540  and  _543
REMARK  211  A    between atoms: _543  and  _544
REMARK  212  A    between atoms: _549  and  _551
REMARK  213  A    between atoms: _551  and  _552
REMARK  214  A    between atoms: _551  and  _554
REMARK  215  A    between atoms: _554  and  _555
REMARK  216  A    between atoms: _555  and  _556
REMARK  217  A    between atoms: _556  and  _557
REMARK  218  A    between atoms: _566  and  _568
REMARK  219  A    between atoms: _568  and  _569
REMARK  220  A    between atoms: _571  and  _573
REMARK  221  A    between atoms: _573  and  _574
REMARK  222  A    between atoms: _573  and  _576
REMARK  223  A    between atoms: _576  and  _577
REMARK  224  A    between atoms: _582  and  _584
REMARK  225  A    between atoms: _584  and  _585
REMARK  226  A    between atoms: _587  and  _589
REMARK  227  A    between atoms: _589  and  _590
REMARK  228  A    between atoms: _593  and  _595
REMARK  229  A    between atoms: _595  and  _596
REMARK  230  A    between atoms: _598  and  _600
REMARK  231  A    between atoms: _600  and  _601
REMARK  232  A    between atoms: _600  and  _603
REMARK  233  A    between atoms: _603  and  _604
REMARK  234  A    between atoms: _604  and  _605
REMARK  235  A    between atoms: _605  and  _606
REMARK  236  A    between atoms: _615  and  _617
REMARK  237  A    between atoms: _617  and  _618
REMARK  238  A    between atoms: _617  and  _620
REMARK  239  A    between atoms: _620  and  _621
REMARK  240  A    between atoms: _624  and  _626
REMARK  241  A    between atoms: _626  and  _627
REMARK  242  A    between atoms: _626  and  _629
REMARK  243  A    between atoms: _629  and  _630
REMARK                            x       y       z     vdW  Elec       q    Type
REMARK                         _______ _______ _______ _____ _____    ______ ____
ROOT
ATOM      1  O   HOH     1       1.793  48.998  10.797  0.00  0.00    +0.000 OA
ENDROOT
TORSDOF 0
REMARK  Name = ../refined-set-2016/1ppi/1ppi_pocket.pdb
REMARK  243 active torsions:
REMARK  status: ('A' for Active; 'I' for Inactive)
REMARK    1  A    between atoms: _1  and  _3
REMARK    2  A    between atoms: _3  and  _4
REMARK    3  A    between atoms: _3  and  _6
REMARK    4  A    between atoms: _6  and  _7
REMARK    5  A    between atoms: _12  and  _14
REMARK    6  A    between atoms: _14  and  _15
REMARK    7  A    between atoms: _14  and  _17
REMARK    8  A    between atoms: _17  and  _18
REMARK    9  A    between atoms: _24  and  _26
REMARK   10  A    between atoms: _26  and  _27
REMARK   11  A    between atoms: _26  and  _29
REMARK   12  A    between atoms: _29  and  _30
REMARK   13  A    between atoms: _30  and  _31
REMARK   14  A    between atoms: _37  and  _38
REMARK   15  A    between atoms: _43  and  _45
REMARK   16  A    between atoms: _45  and  _46
REMARK   17  A    between atoms: _45  and  _48
REMARK   18  A    between atoms: _48  and  _49
REMARK   19  A    between atoms: _54  and  _56
REMARK   20  A    between atoms: _56  and  _57
REMARK   21  A    between atoms: _56  and  _59
REMARK   22  A    between atoms: _62  and  _64
REMARK   23  A    between atoms: _64  and  _65
REMARK   24  A    between atoms: _64  and  _67
REMARK   25  A    between atoms: _71  and  _72
REMARK   26  A    between atoms: _78  and  _79
REMARK   27  A    between atoms: _84  and  _86
REMARK   28  A    between atoms: _86  and  _87
REMARK   29  A    between atoms: _86  and  _89
REMARK   30  A    between atoms: _89  and  _90
REMARK   31  A    between atoms: _100  and  _102
REMARK   32  A    between atoms: _102  and  _103
REMARK   33  A    between atoms: _102  and  _105
REMARK   34  A    between atoms: _105  and  _106
REMARK   35  A    between atoms: _116  and  _118
REMARK   36  A    between atoms: _118  and  _119
REMARK   37  A    between atoms: _118  and  _121
REMARK   38  A    between atoms: _121  and  _122
REMARK   39  A    between atoms: _122  and  _123
REMARK   40  A    between atoms: _126  and  _128
REMARK   41  A    between atoms: _128  and  _129
REMARK   42  A    between atoms: _128  and  _131
REMARK   43  A    between atoms: _131  and  _132
REMARK   44  A    between atoms: _132  and  _133
REMARK   45  A    between atoms: _133  and  _134
REMARK   46  A    between atoms: _143  and  _145
REMARK   47  A    between atoms: _145  and  _146
REMARK   48  A    between atoms: _145  and  _148
REMARK   49  A    between atoms: _148  and  _149
REMARK   50  A    between atoms: _154  and  _155
REMARK   51  A    between atoms: _157  and  _159
REMARK   52  A    between atoms: _159  and  _160
REMARK   53  A    between atoms: _159  and  _162
REMARK   54  A    between atoms: _162  and  _163
REMARK   55  A    between atoms: _163  and  _164
REMARK   56  A    between atoms: _170  and  _171
REMARK   57  A    between atoms: _176  and  _178
REMARK   58  A    between atoms: _178  and  _179
REMARK   59  A    between atoms: _178  and  _181
REMARK   60  A    between atoms: _181  and  _182
REMARK   61  A    between atoms: _185  and  _187
REMARK   62  A    between atoms: _187  and  _188
REMARK   63  A    between atoms: _191  and  _193
REMARK   64  A    between atoms: _193  and  _194
REMARK   65  A    between atoms: _193  and  _196
REMARK   66  A    between atoms: _199  and  _201
REMARK   67  A    between atoms: _201  and  _202
REMARK   68  A    between atoms: _201  and  _204
REMARK   69  A    between atoms: _204  and  _205
REMARK   70  A    between atoms: _208  and  _210
REMARK   71  A    between atoms: _210  and  _211
REMARK   72  A    between atoms: _210  and  _213
REMARK   73  A    between atoms: _213  and  _214
REMARK   74  A    between atoms: _219  and  _221
REMARK   75  A    between atoms: _221  and  _222
REMARK   76  A    between atoms: _221  and  _224
REMARK   77  A    between atoms: _224  and  _225
REMARK   78  A    between atoms: _230  and  _232
REMARK   79  A    between atoms: _232  and  _233
REMARK   80  A    between atoms: _232  and  _235
REMARK   81  A    between atoms: _235  and  _236
REMARK   82  A    between atoms: _236  and  _237
REMARK   83  A    between atoms: _239  and  _241
REMARK   84  A    between atoms: _241  and  _242
REMARK   85  A    between atoms: _241  and  _244
REMARK   86  A    between atoms: _246  and  _248
REMARK   87  A    between atoms: _248  and  _249
REMARK   88  A    between atoms: _251  and  _253
REMARK   89  A    between atoms: _253  and  _254
REMARK   90  A    between atoms: _253  and  _256
REMARK   91  A    between atoms: _256  and  _257
REMARK   92  A    between atoms: _259  and  _261
REMARK   93  A    between atoms: _261  and  _262
REMARK   94  A    between atoms: _264  and  _266
REMARK   95  A    between atoms: _266  and  _267
REMARK   96  A    between atoms: _270  and  _272
REMARK   97  A    between atoms: _272  and  _273
REMARK   98  A    between atoms: _272  and  _275
REMARK   99  A    between atoms: _275  and  _276
REMARK  100  A    between atoms: _279  and  _281
REMARK  101  A    between atoms: _281  and  _282
REMARK  102  A    between atoms: _281  and  _284
REMARK  103  A    between atoms: _284  and  _285
REMARK  104  A    between atoms: _290  and  _291
REMARK  105  A    between atoms: _293  and  _295
REMARK  106  A    between atoms: _295  and  _296
REMARK  107  A    between atoms: _295  and  _298
REMARK  108  A    between atoms: _301  and  _303
REMARK  109  A    between atoms: _303  and  _304
REMARK  110  A    between atoms: _303  and  _306
REMARK  111  A    between atoms: _306  and  _307
REMARK  112  A    between atoms: _307  and  _308
REMARK  113  A    between atoms: _313  and  _315
REMARK  114  A    between atoms: _315  and  _316
REMARK  115  A    between atoms: _315  and  _318
REMARK  116  A    between atoms: _318  and  _319
REMARK  117  A    between atoms: _322  and  _324
REMARK  118  A    between atoms: _324  and  _325
REMARK  119  A    between atoms: _324  and  _327
REMARK  120  A    between atoms: _330  and  _332
REMARK  121  A    between atoms: _332  and  _333
REMARK  122  A    between atoms: _335  and  _337
REMARK  123  A    between atoms: _337  and  _338
REMARK  124  A    between atoms: _337  and  _340
REMARK  125  A    between atoms: _340  and  _341
REMARK  126  A    between atoms: _344  and  _346
REMARK  127  A    between atoms: _346  and  _347
REMARK  128  A    between atoms: _346  and  _349
REMARK  129  A    between atoms: _349  and  _350
REMARK  130  A    between atoms: _353  and  _355
REMARK  131  A    between atoms: _355  and  _356
REMARK  132  A    between atoms: _355  and  _358
REMARK  133  A    between atoms: _358  and  _359
REMARK  134  A    between atoms: _359  and  _360
REMARK  135  A    between atoms: _360  and  _361
REMARK  136  A    between atoms: _370  and  _372
REMARK  137  A    between atoms: _372  and  _373
REMARK  138  A    between atoms: _372  and  _375
REMARK  139  A    between atoms: _375  and  _376
REMARK  140  A    between atoms: _379  and  _381
REMARK  141  A    between atoms: _381  and  _382
REMARK  142  A    between atoms: _381  and  _384
REMARK  143  A    between atoms: _384  and  _385
REMARK  144  A    between atoms: _388  and  _390
REMARK  145  A    between atoms: _390  and  _391
REMARK  146  A    between atoms: _394  and  _396
REMARK  147  A    between atoms: _396  and  _397
REMARK  148  A    between atoms: _396  and  _399
REMARK  149  A    between atoms: _399  and  _400
REMARK  150  A    between atoms: _402  and  _404
REMARK  151  A    between atoms: _404  and  _405
REMARK  152  A    between atoms: _404  and  _407
REMARK  153  A    between atoms: _407  and  _408
REMARK  154  A    between atoms: _408  and  _409
REMARK  155  A    between atoms: _409  and  _410
REMARK  156  A    between atoms: _410  and  _411
REMARK  157  A    between atoms: _415  and  _417
REMARK  158  A    between atoms: _417  and  _418
REMARK  159  A    between atoms: _417  and  _420
REMARK  160  A    between atoms: _420  and  _421
REMARK  161  A    between atoms: _426  and  _428
REMARK  162  A    between atoms: _428  and  _429
REMARK  163  A    between atoms: _428  and  _431
REMARK  164  A    between atoms: _431  and  _432
REMARK  165  A    between atoms: _432  and  _433
REMARK  166  A    between atoms: _436  and  _438
REMARK  167  A    between atoms: _438  and  _439
REMARK  168  A    between atoms: _438  and  _441
REMARK  169  A    between atoms: _444  and  _446
REMARK  170  A    between atoms: _446  and  _447
REMARK  171  A    between atoms: _446  and  _449
REMARK  172  A    between atoms: _449  and  _450
REMARK  173  A    between atoms: _453  and  _455
REMARK  174  A    between atoms: _455  and  _456
REMARK  175  A    between atoms: _455  and  _458
REMARK  176  A    between atoms: _458  and  _459
REMARK  177  A    between atoms: _462  and  _464
REMARK  178  A    between atoms: _464  and  _465
REMARK  179  A    between atoms: _464  and  _467
REMARK  180  A    between atoms: _467  and  _468
REMARK  181  A    between atoms: _471  and  _473
REMARK  182  A    between atoms: _473  and  _474
REMARK  183  A    between atoms: _476  and  _478
REMARK  184  A    between atoms: _478  and  _479
REMARK  185  A    between atoms: _478  and  _481
REMARK  186  A    between atoms: _481  and  _482
REMARK  187  A    between atoms: _482  and  _483
REMARK  188  A    between atoms: _486  and  _488
REMARK  189  A    between atoms: _488  and  _489
REMARK  190  A    between atoms: _488  and  _491
REMARK  191  A    between atoms: _491  and  _492
REMARK  192  A    between atoms: _495  and  _497
REMARK  193  A    between atoms: _497  and  _498
REMARK  194  A    between atoms: _497  and  _500
REMARK  195  A    between atoms: _500  and  _501
REMARK  196  A    between atoms: _507  and  _509
REMARK  197  A    between atoms: _509  and  _510
REMARK  198  A    between atoms: _509  and  _512
REMARK  199  A    between atoms: _512  and  _513
REMARK  200  A    between atoms: _518  and  _520
REMARK  201  A    between atoms: _520  and  _521
REMARK  202  A    between atoms: _520  and  _523
REMARK  203  A    between atoms: _523  and  _524
REMARK  204  A    between atoms: _529  and  _531
REMARK  205  A    between atoms: _531  and  _532
REMARK  206  A    between atoms: _531  and  _534
REMARK  207  A    between atoms: _534  and  _535
REMARK  208  A    between atoms: _538  and  _540
REMARK  209  A    between atoms: _540  and  _541
REMARK  210  A    between atoms: _540  and  _543
REMARK  211  A    between atoms: _543  and  _544
REMARK  212  A    between atoms: _549  and  _551
REMARK  213  A    between atoms: _551  and  _552
REMARK  214  A    between atoms: _551  and  _554
REMARK  215  A    between atoms: _554  and  _555
REMARK  216  A    between atoms: _555  and  _556
REMARK  217  A    between atoms: _556  and  _557
REMARK  218  A    between atoms: _566  and  _568
REMARK  219  A    between atoms: _568  and  _569
REMARK  220  A    between atoms: _571  and  _573
REMARK  221  A    between atoms: _573  and  _574
REMARK  222  A    between atoms: _573  and  _576
REMARK  223  A    between atoms: _576  and  _577
REMARK  224  A    between atoms: _582  and  _584
REMARK  225  A    between atoms: _584  and  _585
REMARK  226  A    between atoms: _587  and  _589
REMARK  227  A    between atoms: _589  and  _590
REMARK  228  A    between atoms: _593  and  _595
REMARK  229  A    between atoms: _595  and  _596
REMARK  230  A    between atoms: _598  and  _600
REMARK  231  A    between atoms: _600  and  _601
REMARK  232  A    between atoms: _600  and  _603
REMARK  233  A    between atoms: _603  and  _604
REMARK  234  A    between atoms: _604  and  _605
REMARK  235  A    between atoms: _605  and  _606
REMARK  236  A    between atoms: _615  and  _617
REMARK  237  A    between atoms: _617  and  _618
REMARK  238  A    between atoms: _617  and  _620
REMARK  239  A    between atoms: _620  and  _621
REMARK  240  A    between atoms: _624  and  _626
REMARK  241  A    between atoms: _626  and  _627
REMARK  242  A    between atoms: _626  and  _629
REMARK  243  A    between atoms: _629  and  _630
REMARK                            x       y       z     vdW  Elec       q    Type
REMARK                         _______ _______ _______ _____ _____    ______ ____
ROOT
ATOM      1  O   HOH     1       4.175  41.707  10.955  0.00  0.00    +0.000 OA
ENDROOT
TORSDOF 0
REMARK  Name = ../refined-set-2016/1ppi/1ppi_pocket.pdb
REMARK  243 active torsions:
REMARK  status: ('A' for Active; 'I' for Inactive)
REMARK    1  A    between atoms: _1  and  _3
REMARK    2  A    between atoms: _3  and  _4
REMARK    3  A    between atoms: _3  and  _6
REMARK    4  A    between atoms: _6  and  _7
REMARK    5  A    between atoms: _12  and  _14
REMARK    6  A    between atoms: _14  and  _15
REMARK    7  A    between atoms: _14  and  _17
REMARK    8  A    between atoms: _17  and  _18
REMARK    9  A    between atoms: _24  and  _26
REMARK   10  A    between atoms: _26  and  _27
REMARK   11  A    between atoms: _26  and  _29
REMARK   12  A    between atoms: _29  and  _30
REMARK   13  A    between atoms: _30  and  _31
REMARK   14  A    between atoms: _37  and  _38
REMARK   15  A    between atoms: _43  and  _45
REMARK   16  A    between atoms: _45  and  _46
REMARK   17  A    between atoms: _45  and  _48
REMARK   18  A    between atoms: _48  and  _49
REMARK   19  A    between atoms: _54  and  _56
REMARK   20  A    between atoms: _56  and  _57
REMARK   21  A    between atoms: _56  and  _59
REMARK   22  A    between atoms: _62  and  _64
REMARK   23  A    between atoms: _64  and  _65
REMARK   24  A    between atoms: _64  and  _67
REMARK   25  A    between atoms: _71  and  _72
REMARK   26  A    between atoms: _78  and  _79
REMARK   27  A    between atoms: _84  and  _86
REMARK   28  A    between atoms: _86  and  _87
REMARK   29  A    between atoms: _86  and  _89
REMARK   30  A    between atoms: _89  and  _90
REMARK   31  A    between atoms: _100  and  _102
REMARK   32  A    between atoms: _102  and  _103
REMARK   33  A    between atoms: _102  and  _105
REMARK   34  A    between atoms: _105  and  _106
REMARK   35  A    between atoms: _116  and  _118
REMARK   36  A    between atoms: _118  and  _119
REMARK   37  A    between atoms: _118  and  _121
REMARK   38  A    between atoms: _121  and  _122
REMARK   39  A    between atoms: _122  and  _123
REMARK   40  A    between atoms: _126  and  _128
REMARK   41  A    between atoms: _128  and  _129
REMARK   42  A    between atoms: _128  and  _131
REMARK   43  A    between atoms: _131  and  _132
REMARK   44  A    between atoms: _132  and  _133
REMARK   45  A    between atoms: _133  and  _134
REMARK   46  A    between atoms: _143  and  _145
REMARK   47  A    between atoms: _145  and  _146
REMARK   48  A    between atoms: _145  and  _148
REMARK   49  A    between atoms: _148  and  _149
REMARK   50  A    between atoms: _154  and  _155
REMARK   51  A    between atoms: _157  and  _159
REMARK   52  A    between atoms: _159  and  _160
REMARK   53  A    between atoms: _159  and  _162
REMARK   54  A    between atoms: _162  and  _163
REMARK   55  A    between atoms: _163  and  _164
REMARK   56  A    between atoms: _170  and  _171
REMARK   57  A    between atoms: _176  and  _178
REMARK   58  A    between atoms: _178  and  _179
REMARK   59  A    between atoms: _178  and  _181
REMARK   60  A    between atoms: _181  and  _182
REMARK   61  A    between atoms: _185  and  _187
REMARK   62  A    between atoms: _187  and  _188
REMARK   63  A    between atoms: _191  and  _193
REMARK   64  A    between atoms: _193  and  _194
REMARK   65  A    between atoms: _193  and  _196
REMARK   66  A    between atoms: _199  and  _201
REMARK   67  A    between atoms: _201  and  _202
REMARK   68  A    between atoms: _201  and  _204
REMARK   69  A    between atoms: _204  and  _205
REMARK   70  A    between atoms: _208  and  _210
REMARK   71  A    between atoms: _210  and  _211
REMARK   72  A    between atoms: _210  and  _213
REMARK   73  A    between atoms: _213  and  _214
REMARK   74  A    between atoms: _219  and  _221
REMARK   75  A    between atoms: _221  and  _222
REMARK   76  A    between atoms: _221  and  _224
REMARK   77  A    between atoms: _224  and  _225
REMARK   78  A    between atoms: _230  and  _232
REMARK   79  A    between atoms: _232  and  _233
REMARK   80  A    between atoms: _232  and  _235
REMARK   81  A    between atoms: _235  and  _236
REMARK   82  A    between atoms: _236  and  _237
REMARK   83  A    between atoms: _239  and  _241
REMARK   84  A    between atoms: _241  and  _242
REMARK   85  A    between atoms: _241  and  _244
REMARK   86  A    between atoms: _246  and  _248
REMARK   87  A    between atoms: _248  and  _249
REMARK   88  A    between atoms: _251  and  _253
REMARK   89  A    between atoms: _253  and  _254
REMARK   90  A    between atoms: _253  and  _256
REMARK   91  A    between atoms: _256  and  _257
REMARK   92  A    between atoms: _259  and  _261
REMARK   93  A    between atoms: _261  and  _262
REMARK   94  A    between atoms: _264  and  _266
REMARK   95  A    between atoms: _266  and  _267
REMARK   96  A    between atoms: _270  and  _272
REMARK   97  A    between atoms: _272  and  _273
REMARK   98  A    between atoms: _272  and  _275
REMARK   99  A    between atoms: _275  and  _276
REMARK  100  A    between atoms: _279  and  _281
REMARK  101  A    between atoms: _281  and  _282
REMARK  102  A    between atoms: _281  and  _284
REMARK  103  A    between atoms: _284  and  _285
REMARK  104  A    between atoms: _290  and  _291
REMARK  105  A    between atoms: _293  and  _295
REMARK  106  A    between atoms: _295  and  _296
REMARK  107  A    between atoms: _295  and  _298
REMARK  108  A    between atoms: _301  and  _303
REMARK  109  A    between atoms: _303  and  _304
REMARK  110  A    between atoms: _303  and  _306
REMARK  111  A    between atoms: _306  and  _307
REMARK  112  A    between atoms: _307  and  _308
REMARK  113  A    between atoms: _313  and  _315
REMARK  114  A    between atoms: _315  and  _316
REMARK  115  A    between atoms: _315  and  _318
REMARK  116  A    between atoms: _318  and  _319
REMARK  117  A    between atoms: _322  and  _324
REMARK  118  A    between atoms: _324  and  _325
REMARK  119  A    between atoms: _324  and  _327
REMARK  120  A    between atoms: _330  and  _332
REMARK  121  A    between atoms: _332  and  _333
REMARK  122  A    between atoms: _335  and  _337
REMARK  123  A    between atoms: _337  and  _338
REMARK  124  A    between atoms: _337  and  _340
REMARK  125  A    between atoms: _340  and  _341
REMARK  126  A    between atoms: _344  and  _346
REMARK  127  A    between atoms: _346  and  _347
REMARK  128  A    between atoms: _346  and  _349
REMARK  129  A    between atoms: _349  and  _350
REMARK  130  A    between atoms: _353  and  _355
REMARK  131  A    between atoms: _355  and  _356
REMARK  132  A    between atoms: _355  and  _358
REMARK  133  A    between atoms: _358  and  _359
REMARK  134  A    between atoms: _359  and  _360
REMARK  135  A    between atoms: _360  and  _361
REMARK  136  A    between atoms: _370  and  _372
REMARK  137  A    between atoms: _372  and  _373
REMARK  138  A    between atoms: _372  and  _375
REMARK  139  A    between atoms: _375  and  _376
REMARK  140  A    between atoms: _379  and  _381
REMARK  141  A    between atoms: _381  and  _382
REMARK  142  A    between atoms: _381  and  _384
REMARK  143  A    between atoms: _384  and  _385
REMARK  144  A    between atoms: _388  and  _390
REMARK  145  A    between atoms: _390  and  _391
REMARK  146  A    between atoms: _394  and  _396
REMARK  147  A    between atoms: _396  and  _397
REMARK  148  A    between atoms: _396  and  _399
REMARK  149  A    between atoms: _399  and  _400
REMARK  150  A    between atoms: _402  and  _404
REMARK  151  A    between atoms: _404  and  _405
REMARK  152  A    between atoms: _404  and  _407
REMARK  153  A    between atoms: _407  and  _408
REMARK  154  A    between atoms: _408  and  _409
REMARK  155  A    between atoms: _409  and  _410
REMARK  156  A    between atoms: _410  and  _411
REMARK  157  A    between atoms: _415  and  _417
REMARK  158  A    between atoms: _417  and  _418
REMARK  159  A    between atoms: _417  and  _420
REMARK  160  A    between atoms: _420  and  _421
REMARK  161  A    between atoms: _426  and  _428
REMARK  162  A    between atoms: _428  and  _429
REMARK  163  A    between atoms: _428  and  _431
REMARK  164  A    between atoms: _431  and  _432
REMARK  165  A    between atoms: _432  and  _433
REMARK  166  A    between atoms: _436  and  _438
REMARK  167  A    between atoms: _438  and  _439
REMARK  168  A    between atoms: _438  and  _441
REMARK  169  A    between atoms: _444  and  _446
REMARK  170  A    between atoms: _446  and  _447
REMARK  171  A    between atoms: _446  and  _449
REMARK  172  A    between atoms: _449  and  _450
REMARK  173  A    between atoms: _453  and  _455
REMARK  174  A    between atoms: _455  and  _456
REMARK  175  A    between atoms: _455  and  _458
REMARK  176  A    between atoms: _458  and  _459
REMARK  177  A    between atoms: _462  and  _464
REMARK  178  A    between atoms: _464  and  _465
REMARK  179  A    between atoms: _464  and  _467
REMARK  180  A    between atoms: _467  and  _468
REMARK  181  A    between atoms: _471  and  _473
REMARK  182  A    between atoms: _473  and  _474
REMARK  183  A    between atoms: _476  and  _478
REMARK  184  A    between atoms: _478  and  _479
REMARK  185  A    between atoms: _478  and  _481
REMARK  186  A    between atoms: _481  and  _482
REMARK  187  A    between atoms: _482  and  _483
REMARK  188  A    between atoms: _486  and  _488
REMARK  189  A    between atoms: _488  and  _489
REMARK  190  A    between atoms: _488  and  _491
REMARK  191  A    between atoms: _491  and  _492
REMARK  192  A    between atoms: _495  and  _497
REMARK  193  A    between atoms: _497  and  _498
REMARK  194  A    between atoms: _497  and  _500
REMARK  195  A    between atoms: _500  and  _501
REMARK  196  A    between atoms: _507  and  _509
REMARK  197  A    between atoms: _509  and  _510
REMARK  198  A    between atoms: _509  and  _512
REMARK  199  A    between atoms: _512  and  _513
REMARK  200  A    between atoms: _518  and  _520
REMARK  201  A    between atoms: _520  and  _521
REMARK  202  A    between atoms: _520  and  _523
REMARK  203  A    between atoms: _523  and  _524
REMARK  204  A    between atoms: _529  and  _531
REMARK  205  A    between atoms: _531  and  _532
REMARK  206  A    between atoms: _531  and  _534
REMARK  207  A    between atoms: _534  and  _535
REMARK  208  A    between atoms: _538  and  _540
REMARK  209  A    between atoms: _540  and  _541
REMARK  210  A    between atoms: _540  and  _543
REMARK  211  A    between atoms: _543  and  _544
REMARK  212  A    between atoms: _549  and  _551
REMARK  213  A    between atoms: _551  and  _552
REMARK  214  A    between atoms: _551  and  _554
REMARK  215  A    between atoms: _554  and  _555
REMARK  216  A    between atoms: _555  and  _556
REMARK  217  A    between atoms: _556  and  _557
REMARK  218  A    between atoms: _566  and  _568
REMARK  219  A    between atoms: _568  and  _569
REMARK  220  A    between atoms: _571  and  _573
REMARK  221  A    between atoms: _573  and  _574
REMARK  222  A    between atoms: _573  and  _576
REMARK  223  A    between atoms: _576  and  _577
REMARK  224  A    between atoms: _582  and  _584
REMARK  225  A    between atoms: _584  and  _585
REMARK  226  A    between atoms: _587  and  _589
REMARK  227  A    between atoms: _589  and  _590
REMARK  228  A    between atoms: _593  and  _595
REMARK  229  A    between atoms: _595  and  _596
REMARK  230  A    between atoms: _598  and  _600
REMARK  231  A    between atoms: _600  and  _601
REMARK  232  A    between atoms: _600  and  _603
REMARK  233  A    between atoms: _603  and  _604
REMARK  234  A    between atoms: _604  and  _605
REMARK  235  A    between atoms: _605  and  _606
REMARK  236  A    between atoms: _615  and  _617
REMARK  237  A    between atoms: _617  and  _618
REMARK  238  A    between atoms: _617  and  _620
REMARK  239  A    between atoms: _620  and  _621
REMARK  240  A    between atoms: _624  and  _626
REMARK  241  A    between atoms: _626  and  _627
REMARK  242  A    between atoms: _626  and  _629
REMARK  243  A    between atoms: _629  and  _630
REMARK                            x       y       z     vdW  Elec       q    Type
REMARK                         _______ _______ _______ _____ _____    ______ ____
ROOT
ATOM      1  O   HOH     1      -4.687  41.133  14.936  0.00  0.00    +0.000 OA
ENDROOT
TORSDOF 0
REMARK  Name = ../refined-set-2016/1ppi/1ppi_pocket.pdb
REMARK  243 active torsions:
REMARK  status: ('A' for Active; 'I' for Inactive)
REMARK    1  A    between atoms: _1  and  _3
REMARK    2  A    between atoms: _3  and  _4
REMARK    3  A    between atoms: _3  and  _6
REMARK    4  A    between atoms: _6  and  _7
REMARK    5  A    between atoms: _12  and  _14
REMARK    6  A    between atoms: _14  and  _15
REMARK    7  A    between atoms: _14  and  _17
REMARK    8  A    between atoms: _17  and  _18
REMARK    9  A    between atoms: _24  and  _26
REMARK   10  A    between atoms: _26  and  _27
REMARK   11  A    between atoms: _26  and  _29
REMARK   12  A    between atoms: _29  and  _30
REMARK   13  A    between atoms: _30  and  _31
REMARK   14  A    between atoms: _37  and  _38
REMARK   15  A    between atoms: _43  and  _45
REMARK   16  A    between atoms: _45  and  _46
REMARK   17  A    between atoms: _45  and  _48
REMARK   18  A    between atoms: _48  and  _49
REMARK   19  A    between atoms: _54  and  _56
REMARK   20  A    between atoms: _56  and  _57
REMARK   21  A    between atoms: _56  and  _59
REMARK   22  A    between atoms: _62  and  _64
REMARK   23  A    between atoms: _64  and  _65
REMARK   24  A    between atoms: _64  and  _67
REMARK   25  A    between atoms: _71  and  _72
REMARK   26  A    between atoms: _78  and  _79
REMARK   27  A    between atoms: _84  and  _86
REMARK   28  A    between atoms: _86  and  _87
REMARK   29  A    between atoms: _86  and  _89
REMARK   30  A    between atoms: _89  and  _90
REMARK   31  A    between atoms: _100  and  _102
REMARK   32  A    between atoms: _102  and  _103
REMARK   33  A    between atoms: _102  and  _105
REMARK   34  A    between atoms: _105  and  _106
REMARK   35  A    between atoms: _116  and  _118
REMARK   36  A    between atoms: _118  and  _119
REMARK   37  A    between atoms: _118  and  _121
REMARK   38  A    between atoms: _121  and  _122
REMARK   39  A    between atoms: _122  and  _123
REMARK   40  A    between atoms: _126  and  _128
REMARK   41  A    between atoms: _128  and  _129
REMARK   42  A    between atoms: _128  and  _131
REMARK   43  A    between atoms: _131  and  _132
REMARK   44  A    between atoms: _132  and  _133
REMARK   45  A    between atoms: _133  and  _134
REMARK   46  A    between atoms: _143  and  _145
REMARK   47  A    between atoms: _145  and  _146
REMARK   48  A    between atoms: _145  and  _148
REMARK   49  A    between atoms: _148  and  _149
REMARK   50  A    between atoms: _154  and  _155
REMARK   51  A    between atoms: _157  and  _159
REMARK   52  A    between atoms: _159  and  _160
REMARK   53  A    between atoms: _159  and  _162
REMARK   54  A    between atoms: _162  and  _163
REMARK   55  A    between atoms: _163  and  _164
REMARK   56  A    between atoms: _170  and  _171
REMARK   57  A    between atoms: _176  and  _178
REMARK   58  A    between atoms: _178  and  _179
REMARK   59  A    between atoms: _178  and  _181
REMARK   60  A    between atoms: _181  and  _182
REMARK   61  A    between atoms: _185  and  _187
REMARK   62  A    between atoms: _187  and  _188
REMARK   63  A    between atoms: _191  and  _193
REMARK   64  A    between atoms: _193  and  _194
REMARK   65  A    between atoms: _193  and  _196
REMARK   66  A    between atoms: _199  and  _201
REMARK   67  A    between atoms: _201  and  _202
REMARK   68  A    between atoms: _201  and  _204
REMARK   69  A    between atoms: _204  and  _205
REMARK   70  A    between atoms: _208  and  _210
REMARK   71  A    between atoms: _210  and  _211
REMARK   72  A    between atoms: _210  and  _213
REMARK   73  A    between atoms: _213  and  _214
REMARK   74  A    between atoms: _219  and  _221
REMARK   75  A    between atoms: _221  and  _222
REMARK   76  A    between atoms: _221  and  _224
REMARK   77  A    between atoms: _224  and  _225
REMARK   78  A    between atoms: _230  and  _232
REMARK   79  A    between atoms: _232  and  _233
REMARK   80  A    between atoms: _232  and  _235
REMARK   81  A    between atoms: _235  and  _236
REMARK   82  A    between atoms: _236  and  _237
REMARK   83  A    between atoms: _239  and  _241
REMARK   84  A    between atoms: _241  and  _242
REMARK   85  A    between atoms: _241  and  _244
REMARK   86  A    between atoms: _246  and  _248
REMARK   87  A    between atoms: _248  and  _249
REMARK   88  A    between atoms: _251  and  _253
REMARK   89  A    between atoms: _253  and  _254
REMARK   90  A    between atoms: _253  and  _256
REMARK   91  A    between atoms: _256  and  _257
REMARK   92  A    between atoms: _259  and  _261
REMARK   93  A    between atoms: _261  and  _262
REMARK   94  A    between atoms: _264  and  _266
REMARK   95  A    between atoms: _266  and  _267
REMARK   96  A    between atoms: _270  and  _272
REMARK   97  A    between atoms: _272  and  _273
REMARK   98  A    between atoms: _272  and  _275
REMARK   99  A    between atoms: _275  and  _276
REMARK  100  A    between atoms: _279  and  _281
REMARK  101  A    between atoms: _281  and  _282
REMARK  102  A    between atoms: _281  and  _284
REMARK  103  A    between atoms: _284  and  _285
REMARK  104  A    between atoms: _290  and  _291
REMARK  105  A    between atoms: _293  and  _295
REMARK  106  A    between atoms: _295  and  _296
REMARK  107  A    between atoms: _295  and  _298
REMARK  108  A    between atoms: _301  and  _303
REMARK  109  A    between atoms: _303  and  _304
REMARK  110  A    between atoms: _303  and  _306
REMARK  111  A    between atoms: _306  and  _307
REMARK  112  A    between atoms: _307  and  _308
REMARK  113  A    between atoms: _313  and  _315
REMARK  114  A    between atoms: _315  and  _316
REMARK  115  A    between atoms: _315  and  _318
REMARK  116  A    between atoms: _318  and  _319
REMARK  117  A    between atoms: _322  and  _324
REMARK  118  A    between atoms: _324  and  _325
REMARK  119  A    between atoms: _324  and  _327
REMARK  120  A    between atoms: _330  and  _332
REMARK  121  A    between atoms: _332  and  _333
REMARK  122  A    between atoms: _335  and  _337
REMARK  123  A    between atoms: _337  and  _338
REMARK  124  A    between atoms: _337  and  _340
REMARK  125  A    between atoms: _340  and  _341
REMARK  126  A    between atoms: _344  and  _346
REMARK  127  A    between atoms: _346  and  _347
REMARK  128  A    between atoms: _346  and  _349
REMARK  129  A    between atoms: _349  and  _350
REMARK  130  A    between atoms: _353  and  _355
REMARK  131  A    between atoms: _355  and  _356
REMARK  132  A    between atoms: _355  and  _358
REMARK  133  A    between atoms: _358  and  _359
REMARK  134  A    between atoms: _359  and  _360
REMARK  135  A    between atoms: _360  and  _361
REMARK  136  A    between atoms: _370  and  _372
REMARK  137  A    between atoms: _372  and  _373
REMARK  138  A    between atoms: _372  and  _375
REMARK  139  A    between atoms: _375  and  _376
REMARK  140  A    between atoms: _379  and  _381
REMARK  141  A    between atoms: _381  and  _382
REMARK  142  A    between atoms: _381  and  _384
REMARK  143  A    between atoms: _384  and  _385
REMARK  144  A    between atoms: _388  and  _390
REMARK  145  A    between atoms: _390  and  _391
REMARK  146  A    between atoms: _394  and  _396
REMARK  147  A    between atoms: _396  and  _397
REMARK  148  A    between atoms: _396  and  _399
REMARK  149  A    between atoms: _399  and  _400
REMARK  150  A    between atoms: _402  and  _404
REMARK  151  A    between atoms: _404  and  _405
REMARK  152  A    between atoms: _404  and  _407
REMARK  153  A    between atoms: _407  and  _408
REMARK  154  A    between atoms: _408  and  _409
REMARK  155  A    between atoms: _409  and  _410
REMARK  156  A    between atoms: _410  and  _411
REMARK  157  A    between atoms: _415  and  _417
REMARK  158  A    between atoms: _417  and  _418
REMARK  159  A    between atoms: _417  and  _420
REMARK  160  A    between atoms: _420  and  _421
REMARK  161  A    between atoms: _426  and  _428
REMARK  162  A    between atoms: _428  and  _429
REMARK  163  A    between atoms: _428  and  _431
REMARK  164  A    between atoms: _431  and  _432
REMARK  165  A    between atoms: _432  and  _433
REMARK  166  A    between atoms: _436  and  _438
REMARK  167  A    between atoms: _438  and  _439
REMARK  168  A    between atoms: _438  and  _441
REMARK  169  A    between atoms: _444  and  _446
REMARK  170  A    between atoms: _446  and  _447
REMARK  171  A    between atoms: _446  and  _449
REMARK  172  A    between atoms: _449  and  _450
REMARK  173  A    between atoms: _453  and  _455
REMARK  174  A    between atoms: _455  and  _456
REMARK  175  A    between atoms: _455  and  _458
REMARK  176  A    between atoms: _458  and  _459
REMARK  177  A    between atoms: _462  and  _464
REMARK  178  A    between atoms: _464  and  _465
REMARK  179  A    between atoms: _464  and  _467
REMARK  180  A    between atoms: _467  and  _468
REMARK  181  A    between atoms: _471  and  _473
REMARK  182  A    between atoms: _473  and  _474
REMARK  183  A    between atoms: _476  and  _478
REMARK  184  A    between atoms: _478  and  _479
REMARK  185  A    between atoms: _478  and  _481
REMARK  186  A    between atoms: _481  and  _482
REMARK  187  A    between atoms: _482  and  _483
REMARK  188  A    between atoms: _486  and  _488
REMARK  189  A    between atoms: _488  and  _489
REMARK  190  A    between atoms: _488  and  _491
REMARK  191  A    between atoms: _491  and  _492
REMARK  192  A    between atoms: _495  and  _497
REMARK  193  A    between atoms: _497  and  _498
REMARK  194  A    between atoms: _497  and  _500
REMARK  195  A    between atoms: _500  and  _501
REMARK  196  A    between atoms: _507  and  _509
REMARK  197  A    between atoms: _509  and  _510
REMARK  198  A    between atoms: _509  and  _512
REMARK  199  A    between atoms: _512  and  _513
REMARK  200  A    between atoms: _518  and  _520
REMARK  201  A    between atoms: _520  and  _521
REMARK  202  A    between atoms: _520  and  _523
REMARK  203  A    between atoms: _523  and  _524
REMARK  204  A    between atoms: _529  and  _531
REMARK  205  A    between atoms: _531  and  _532
REMARK  206  A    between atoms: _531  and  _534
REMARK  207  A    between atoms: _534  and  _535
REMARK  208  A    between atoms: _538  and  _540
REMARK  209  A    between atoms: _540  and  _541
REMARK  210  A    between atoms: _540  and  _543
REMARK  211  A    between atoms: _543  and  _544
REMARK  212  A    between atoms: _549  and  _551
REMARK  213  A    between atoms: _551  and  _552
REMARK  214  A    between atoms: _551  and  _554
REMARK  215  A    between atoms: _554  and  _555
REMARK  216  A    between atoms: _555  and  _556
REMARK  217  A    between atoms: _556  and  _557
REMARK  218  A    between atoms: _566  and  _568
REMARK  219  A    between atoms: _568  and  _569
REMARK  220  A    between atoms: _571  and  _573
REMARK  221  A    between atoms: _573  and  _574
REMARK  222  A    between atoms: _573  and  _576
REMARK  223  A    between atoms: _576  and  _577
REMARK  224  A    between atoms: _582  and  _584
REMARK  225  A    between atoms: _584  and  _585
REMARK  226  A    between atoms: _587  and  _589
REMARK  227  A    between atoms: _589  and  _590
REMARK  228  A    between atoms: _593  and  _595
REMARK  229  A    between atoms: _595  and  _596
REMARK  230  A    between atoms: _598  and  _600
REMARK  231  A    between atoms: _600  and  _601
REMARK  232  A    between atoms: _600  and  _603
REMARK  233  A    between atoms: _603  and  _604
REMARK  234  A    between atoms: _604  and  _605
REMARK  235  A    between atoms: _605  and  _606
REMARK  236  A    between atoms: _615  and  _617
REMARK  237  A    between atoms: _617  and  _618
REMARK  238  A    between atoms: _617  and  _620
REMARK  239  A    between atoms: _620  and  _621
REMARK  240  A    between atoms: _624  and  _626
REMARK  241  A    between atoms: _626  and  _627
REMARK  242  A    between atoms: _626  and  _629
REMARK  243  A    between atoms: _629  and  _630
REMARK                            x       y       z     vdW  Elec       q    Type
REMARK                         _______ _______ _______ _____ _____    ______ ____
ROOT
ATOM      1  O   HOH     1     -12.740  45.584  22.927  0.00  0.00    +0.000 OA
ENDROOT
TORSDOF 0
REMARK  Name = ../refined-set-2016/1ppi/1ppi_pocket.pdb
REMARK  243 active torsions:
REMARK  status: ('A' for Active; 'I' for Inactive)
REMARK    1  A    between atoms: _1  and  _3
REMARK    2  A    between atoms: _3  and  _4
REMARK    3  A    between atoms: _3  and  _6
REMARK    4  A    between atoms: _6  and  _7
REMARK    5  A    between atoms: _12  and  _14
REMARK    6  A    between atoms: _14  and  _15
REMARK    7  A    between atoms: _14  and  _17
REMARK    8  A    between atoms: _17  and  _18
REMARK    9  A    between atoms: _24  and  _26
REMARK   10  A    between atoms: _26  and  _27
REMARK   11  A    between atoms: _26  and  _29
REMARK   12  A    between atoms: _29  and  _30
REMARK   13  A    between atoms: _30  and  _31
REMARK   14  A    between atoms: _37  and  _38
REMARK   15  A    between atoms: _43  and  _45
REMARK   16  A    between atoms: _45  and  _46
REMARK   17  A    between atoms: _45  and  _48
REMARK   18  A    between atoms: _48  and  _49
REMARK   19  A    between atoms: _54  and  _56
REMARK   20  A    between atoms: _56  and  _57
REMARK   21  A    between atoms: _56  and  _59
REMARK   22  A    between atoms: _62  and  _64
REMARK   23  A    between atoms: _64  and  _65
REMARK   24  A    between atoms: _64  and  _67
REMARK   25  A    between atoms: _71  and  _72
REMARK   26  A    between atoms: _78  and  _79
REMARK   27  A    between atoms: _84  and  _86
REMARK   28  A    between atoms: _86  and  _87
REMARK   29  A    between atoms: _86  and  _89
REMARK   30  A    between atoms: _89  and  _90
REMARK   31  A    between atoms: _100  and  _102
REMARK   32  A    between atoms: _102  and  _103
REMARK   33  A    between atoms: _102  and  _105
REMARK   34  A    between atoms: _105  and  _106
REMARK   35  A    between atoms: _116  and  _118
REMARK   36  A    between atoms: _118  and  _119
REMARK   37  A    between atoms: _118  and  _121
REMARK   38  A    between atoms: _121  and  _122
REMARK   39  A    between atoms: _122  and  _123
REMARK   40  A    between atoms: _126  and  _128
REMARK   41  A    between atoms: _128  and  _129
REMARK   42  A    between atoms: _128  and  _131
REMARK   43  A    between atoms: _131  and  _132
REMARK   44  A    between atoms: _132  and  _133
REMARK   45  A    between atoms: _133  and  _134
REMARK   46  A    between atoms: _143  and  _145
REMARK   47  A    between atoms: _145  and  _146
REMARK   48  A    between atoms: _145  and  _148
REMARK   49  A    between atoms: _148  and  _149
REMARK   50  A    between atoms: _154  and  _155
REMARK   51  A    between atoms: _157  and  _159
REMARK   52  A    between atoms: _159  and  _160
REMARK   53  A    between atoms: _159  and  _162
REMARK   54  A    between atoms: _162  and  _163
REMARK   55  A    between atoms: _163  and  _164
REMARK   56  A    between atoms: _170  and  _171
REMARK   57  A    between atoms: _176  and  _178
REMARK   58  A    between atoms: _178  and  _179
REMARK   59  A    between atoms: _178  and  _181
REMARK   60  A    between atoms: _181  and  _182
REMARK   61  A    between atoms: _185  and  _187
REMARK   62  A    between atoms: _187  and  _188
REMARK   63  A    between atoms: _191  and  _193
REMARK   64  A    between atoms: _193  and  _194
REMARK   65  A    between atoms: _193  and  _196
REMARK   66  A    between atoms: _199  and  _201
REMARK   67  A    between atoms: _201  and  _202
REMARK   68  A    between atoms: _201  and  _204
REMARK   69  A    between atoms: _204  and  _205
REMARK   70  A    between atoms: _208  and  _210
REMARK   71  A    between atoms: _210  and  _211
REMARK   72  A    between atoms: _210  and  _213
REMARK   73  A    between atoms: _213  and  _214
REMARK   74  A    between atoms: _219  and  _221
REMARK   75  A    between atoms: _221  and  _222
REMARK   76  A    between atoms: _221  and  _224
REMARK   77  A    between atoms: _224  and  _225
REMARK   78  A    between atoms: _230  and  _232
REMARK   79  A    between atoms: _232  and  _233
REMARK   80  A    between atoms: _232  and  _235
REMARK   81  A    between atoms: _235  and  _236
REMARK   82  A    between atoms: _236  and  _237
REMARK   83  A    between atoms: _239  and  _241
REMARK   84  A    between atoms: _241  and  _242
REMARK   85  A    between atoms: _241  and  _244
REMARK   86  A    between atoms: _246  and  _248
REMARK   87  A    between atoms: _248  and  _249
REMARK   88  A    between atoms: _251  and  _253
REMARK   89  A    between atoms: _253  and  _254
REMARK   90  A    between atoms: _253  and  _256
REMARK   91  A    between atoms: _256  and  _257
REMARK   92  A    between atoms: _259  and  _261
REMARK   93  A    between atoms: _261  and  _262
REMARK   94  A    between atoms: _264  and  _266
REMARK   95  A    between atoms: _266  and  _267
REMARK   96  A    between atoms: _270  and  _272
REMARK   97  A    between atoms: _272  and  _273
REMARK   98  A    between atoms: _272  and  _275
REMARK   99  A    between atoms: _275  and  _276
REMARK  100  A    between atoms: _279  and  _281
REMARK  101  A    between atoms: _281  and  _282
REMARK  102  A    between atoms: _281  and  _284
REMARK  103  A    between atoms: _284  and  _285
REMARK  104  A    between atoms: _290  and  _291
REMARK  105  A    between atoms: _293  and  _295
REMARK  106  A    between atoms: _295  and  _296
REMARK  107  A    between atoms: _295  and  _298
REMARK  108  A    between atoms: _301  and  _303
REMARK  109  A    between atoms: _303  and  _304
REMARK  110  A    between atoms: _303  and  _306
REMARK  111  A    between atoms: _306  and  _307
REMARK  112  A    between atoms: _307  and  _308
REMARK  113  A    between atoms: _313  and  _315
REMARK  114  A    between atoms: _315  and  _316
REMARK  115  A    between atoms: _315  and  _318
REMARK  116  A    between atoms: _318  and  _319
REMARK  117  A    between atoms: _322  and  _324
REMARK  118  A    between atoms: _324  and  _325
REMARK  119  A    between atoms: _324  and  _327
REMARK  120  A    between atoms: _330  and  _332
REMARK  121  A    between atoms: _332  and  _333
REMARK  122  A    between atoms: _335  and  _337
REMARK  123  A    between atoms: _337  and  _338
REMARK  124  A    between atoms: _337  and  _340
REMARK  125  A    between atoms: _340  and  _341
REMARK  126  A    between atoms: _344  and  _346
REMARK  127  A    between atoms: _346  and  _347
REMARK  128  A    between atoms: _346  and  _349
REMARK  129  A    between atoms: _349  and  _350
REMARK  130  A    between atoms: _353  and  _355
REMARK  131  A    between atoms: _355  and  _356
REMARK  132  A    between atoms: _355  and  _358
REMARK  133  A    between atoms: _358  and  _359
REMARK  134  A    between atoms: _359  and  _360
REMARK  135  A    between atoms: _360  and  _361
REMARK  136  A    between atoms: _370  and  _372
REMARK  137  A    between atoms: _372  and  _373
REMARK  138  A    between atoms: _372  and  _375
REMARK  139  A    between atoms: _375  and  _376
REMARK  140  A    between atoms: _379  and  _381
REMARK  141  A    between atoms: _381  and  _382
REMARK  142  A    between atoms: _381  and  _384
REMARK  143  A    between atoms: _384  and  _385
REMARK  144  A    between atoms: _388  and  _390
REMARK  145  A    between atoms: _390  and  _391
REMARK  146  A    between atoms: _394  and  _396
REMARK  147  A    between atoms: _396  and  _397
REMARK  148  A    between atoms: _396  and  _399
REMARK  149  A    between atoms: _399  and  _400
REMARK  150  A    between atoms: _402  and  _404
REMARK  151  A    between atoms: _404  and  _405
REMARK  152  A    between atoms: _404  and  _407
REMARK  153  A    between atoms: _407  and  _408
REMARK  154  A    between atoms: _408  and  _409
REMARK  155  A    between atoms: _409  and  _410
REMARK  156  A    between atoms: _410  and  _411
REMARK  157  A    between atoms: _415  and  _417
REMARK  158  A    between atoms: _417  and  _418
REMARK  159  A    between atoms: _417  and  _420
REMARK  160  A    between atoms: _420  and  _421
REMARK  161  A    between atoms: _426  and  _428
REMARK  162  A    between atoms: _428  and  _429
REMARK  163  A    between atoms: _428  and  _431
REMARK  164  A    between atoms: _431  and  _432
REMARK  165  A    between atoms: _432  and  _433
REMARK  166  A    between atoms: _436  and  _438
REMARK  167  A    between atoms: _438  and  _439
REMARK  168  A    between atoms: _438  and  _441
REMARK  169  A    between atoms: _444  and  _446
REMARK  170  A    between atoms: _446  and  _447
REMARK  171  A    between atoms: _446  and  _449
REMARK  172  A    between atoms: _449  and  _450
REMARK  173  A    between atoms: _453  and  _455
REMARK  174  A    between atoms: _455  and  _456
REMARK  175  A    between atoms: _455  and  _458
REMARK  176  A    between atoms: _458  and  _459
REMARK  177  A    between atoms: _462  and  _464
REMARK  178  A    between atoms: _464  and  _465
REMARK  179  A    between atoms: _464  and  _467
REMARK  180  A    between atoms: _467  and  _468
REMARK  181  A    between atoms: _471  and  _473
REMARK  182  A    between atoms: _473  and  _474
REMARK  183  A    between atoms: _476  and  _478
REMARK  184  A    between atoms: _478  and  _479
REMARK  185  A    between atoms: _478  and  _481
REMARK  186  A    between atoms: _481  and  _482
REMARK  187  A    between atoms: _482  and  _483
REMARK  188  A    between atoms: _486  and  _488
REMARK  189  A    between atoms: _488  and  _489
REMARK  190  A    between atoms: _488  and  _491
REMARK  191  A    between atoms: _491  and  _492
REMARK  192  A    between atoms: _495  and  _497
REMARK  193  A    between atoms: _497  and  _498
REMARK  194  A    between atoms: _497  and  _500
REMARK  195  A    between atoms: _500  and  _501
REMARK  196  A    between atoms: _507  and  _509
REMARK  197  A    between atoms: _509  and  _510
REMARK  198  A    between atoms: _509  and  _512
REMARK  199  A    between atoms: _512  and  _513
REMARK  200  A    between atoms: _518  and  _520
REMARK  201  A    between atoms: _520  and  _521
REMARK  202  A    between atoms: _520  and  _523
REMARK  203  A    between atoms: _523  and  _524
REMARK  204  A    between atoms: _529  and  _531
REMARK  205  A    between atoms: _531  and  _532
REMARK  206  A    between atoms: _531  and  _534
REMARK  207  A    between atoms: _534  and  _535
REMARK  208  A    between atoms: _538  and  _540
REMARK  209  A    between atoms: _540  and  _541
REMARK  210  A    between atoms: _540  and  _543
REMARK  211  A    between atoms: _543  and  _544
REMARK  212  A    between atoms: _549  and  _551
REMARK  213  A    between atoms: _551  and  _552
REMARK  214  A    between atoms: _551  and  _554
REMARK  215  A    between atoms: _554  and  _555
REMARK  216  A    between atoms: _555  and  _556
REMARK  217  A    between atoms: _556  and  _557
REMARK  218  A    between atoms: _566  and  _568
REMARK  219  A    between atoms: _568  and  _569
REMARK  220  A    between atoms: _571  and  _573
REMARK  221  A    between atoms: _573  and  _574
REMARK  222  A    between atoms: _573  and  _576
REMARK  223  A    between atoms: _576  and  _577
REMARK  224  A    between atoms: _582  and  _584
REMARK  225  A    between atoms: _584  and  _585
REMARK  226  A    between atoms: _587  and  _589
REMARK  227  A    between atoms: _589  and  _590
REMARK  228  A    between atoms: _593  and  _595
REMARK  229  A    between atoms: _595  and  _596
REMARK  230  A    between atoms: _598  and  _600
REMARK  231  A    between atoms: _600  and  _601
REMARK  232  A    between atoms: _600  and  _603
REMARK  233  A    between atoms: _603  and  _604
REMARK  234  A    between atoms: _604  and  _605
REMARK  235  A    between atoms: _605  and  _606
REMARK  236  A    between atoms: _615  and  _617
REMARK  237  A    between atoms: _617  and  _618
REMARK  238  A    between atoms: _617  and  _620
REMARK  239  A    between atoms: _620  and  _621
REMARK  240  A    between atoms: _624  and  _626
REMARK  241  A    between atoms: _626  and  _627
REMARK  242  A    between atoms: _626  and  _629
REMARK  243  A    between atoms: _629  and  _630
REMARK                            x       y       z     vdW  Elec       q    Type
REMARK                         _______ _______ _______ _____ _____    ______ ____
ROOT
ATOM      1  O   HOH     1      -9.825  42.442  23.326  0.00  0.00    +0.000 OA
ENDROOT
TORSDOF 0
REMARK  Name = ../refined-set-2016/1ppi/1ppi_pocket.pdb
REMARK  243 active torsions:
REMARK  status: ('A' for Active; 'I' for Inactive)
REMARK    1  A    between atoms: _1  and  _3
REMARK    2  A    between atoms: _3  and  _4
REMARK    3  A    between atoms: _3  and  _6
REMARK    4  A    between atoms: _6  and  _7
REMARK    5  A    between atoms: _12  and  _14
REMARK    6  A    between atoms: _14  and  _15
REMARK    7  A    between atoms: _14  and  _17
REMARK    8  A    between atoms: _17  and  _18
REMARK    9  A    between atoms: _24  and  _26
REMARK   10  A    between atoms: _26  and  _27
REMARK   11  A    between atoms: _26  and  _29
REMARK   12  A    between atoms: _29  and  _30
REMARK   13  A    between atoms: _30  and  _31
REMARK   14  A    between atoms: _37  and  _38
REMARK   15  A    between atoms: _43  and  _45
REMARK   16  A    between atoms: _45  and  _46
REMARK   17  A    between atoms: _45  and  _48
REMARK   18  A    between atoms: _48  and  _49
REMARK   19  A    between atoms: _54  and  _56
REMARK   20  A    between atoms: _56  and  _57
REMARK   21  A    between atoms: _56  and  _59
REMARK   22  A    between atoms: _62  and  _64
REMARK   23  A    between atoms: _64  and  _65
REMARK   24  A    between atoms: _64  and  _67
REMARK   25  A    between atoms: _71  and  _72
REMARK   26  A    between atoms: _78  and  _79
REMARK   27  A    between atoms: _84  and  _86
REMARK   28  A    between atoms: _86  and  _87
REMARK   29  A    between atoms: _86  and  _89
REMARK   30  A    between atoms: _89  and  _90
REMARK   31  A    between atoms: _100  and  _102
REMARK   32  A    between atoms: _102  and  _103
REMARK   33  A    between atoms: _102  and  _105
REMARK   34  A    between atoms: _105  and  _106
REMARK   35  A    between atoms: _116  and  _118
REMARK   36  A    between atoms: _118  and  _119
REMARK   37  A    between atoms: _118  and  _121
REMARK   38  A    between atoms: _121  and  _122
REMARK   39  A    between atoms: _122  and  _123
REMARK   40  A    between atoms: _126  and  _128
REMARK   41  A    between atoms: _128  and  _129
REMARK   42  A    between atoms: _128  and  _131
REMARK   43  A    between atoms: _131  and  _132
REMARK   44  A    between atoms: _132  and  _133
REMARK   45  A    between atoms: _133  and  _134
REMARK   46  A    between atoms: _143  and  _145
REMARK   47  A    between atoms: _145  and  _146
REMARK   48  A    between atoms: _145  and  _148
REMARK   49  A    between atoms: _148  and  _149
REMARK   50  A    between atoms: _154  and  _155
REMARK   51  A    between atoms: _157  and  _159
REMARK   52  A    between atoms: _159  and  _160
REMARK   53  A    between atoms: _159  and  _162
REMARK   54  A    between atoms: _162  and  _163
REMARK   55  A    between atoms: _163  and  _164
REMARK   56  A    between atoms: _170  and  _171
REMARK   57  A    between atoms: _176  and  _178
REMARK   58  A    between atoms: _178  and  _179
REMARK   59  A    between atoms: _178  and  _181
REMARK   60  A    between atoms: _181  and  _182
REMARK   61  A    between atoms: _185  and  _187
REMARK   62  A    between atoms: _187  and  _188
REMARK   63  A    between atoms: _191  and  _193
REMARK   64  A    between atoms: _193  and  _194
REMARK   65  A    between atoms: _193  and  _196
REMARK   66  A    between atoms: _199  and  _201
REMARK   67  A    between atoms: _201  and  _202
REMARK   68  A    between atoms: _201  and  _204
REMARK   69  A    between atoms: _204  and  _205
REMARK   70  A    between atoms: _208  and  _210
REMARK   71  A    between atoms: _210  and  _211
REMARK   72  A    between atoms: _210  and  _213
REMARK   73  A    between atoms: _213  and  _214
REMARK   74  A    between atoms: _219  and  _221
REMARK   75  A    between atoms: _221  and  _222
REMARK   76  A    between atoms: _221  and  _224
REMARK   77  A    between atoms: _224  and  _225
REMARK   78  A    between atoms: _230  and  _232
REMARK   79  A    between atoms: _232  and  _233
REMARK   80  A    between atoms: _232  and  _235
REMARK   81  A    between atoms: _235  and  _236
REMARK   82  A    between atoms: _236  and  _237
REMARK   83  A    between atoms: _239  and  _241
REMARK   84  A    between atoms: _241  and  _242
REMARK   85  A    between atoms: _241  and  _244
REMARK   86  A    between atoms: _246  and  _248
REMARK   87  A    between atoms: _248  and  _249
REMARK   88  A    between atoms: _251  and  _253
REMARK   89  A    between atoms: _253  and  _254
REMARK   90  A    between atoms: _253  and  _256
REMARK   91  A    between atoms: _256  and  _257
REMARK   92  A    between atoms: _259  and  _261
REMARK   93  A    between atoms: _261  and  _262
REMARK   94  A    between atoms: _264  and  _266
REMARK   95  A    between atoms: _266  and  _267
REMARK   96  A    between atoms: _270  and  _272
REMARK   97  A    between atoms: _272  and  _273
REMARK   98  A    between atoms: _272  and  _275
REMARK   99  A    between atoms: _275  and  _276
REMARK  100  A    between atoms: _279  and  _281
REMARK  101  A    between atoms: _281  and  _282
REMARK  102  A    between atoms: _281  and  _284
REMARK  103  A    between atoms: _284  and  _285
REMARK  104  A    between atoms: _290  and  _291
REMARK  105  A    between atoms: _293  and  _295
REMARK  106  A    between atoms: _295  and  _296
REMARK  107  A    between atoms: _295  and  _298
REMARK  108  A    between atoms: _301  and  _303
REMARK  109  A    between atoms: _303  and  _304
REMARK  110  A    between atoms: _303  and  _306
REMARK  111  A    between atoms: _306  and  _307
REMARK  112  A    between atoms: _307  and  _308
REMARK  113  A    between atoms: _313  and  _315
REMARK  114  A    between atoms: _315  and  _316
REMARK  115  A    between atoms: _315  and  _318
REMARK  116  A    between atoms: _318  and  _319
REMARK  117  A    between atoms: _322  and  _324
REMARK  118  A    between atoms: _324  and  _325
REMARK  119  A    between atoms: _324  and  _327
REMARK  120  A    between atoms: _330  and  _332
REMARK  121  A    between atoms: _332  and  _333
REMARK  122  A    between atoms: _335  and  _337
REMARK  123  A    between atoms: _337  and  _338
REMARK  124  A    between atoms: _337  and  _340
REMARK  125  A    between atoms: _340  and  _341
REMARK  126  A    between atoms: _344  and  _346
REMARK  127  A    between atoms: _346  and  _347
REMARK  128  A    between atoms: _346  and  _349
REMARK  129  A    between atoms: _349  and  _350
REMARK  130  A    between atoms: _353  and  _355
REMARK  131  A    between atoms: _355  and  _356
REMARK  132  A    between atoms: _355  and  _358
REMARK  133  A    between atoms: _358  and  _359
REMARK  134  A    between atoms: _359  and  _360
REMARK  135  A    between atoms: _360  and  _361
REMARK  136  A    between atoms: _370  and  _372
REMARK  137  A    between atoms: _372  and  _373
REMARK  138  A    between atoms: _372  and  _375
REMARK  139  A    between atoms: _375  and  _376
REMARK  140  A    between atoms: _379  and  _381
REMARK  141  A    between atoms: _381  and  _382
REMARK  142  A    between atoms: _381  and  _384
REMARK  143  A    between atoms: _384  and  _385
REMARK  144  A    between atoms: _388  and  _390
REMARK  145  A    between atoms: _390  and  _391
REMARK  146  A    between atoms: _394  and  _396
REMARK  147  A    between atoms: _396  and  _397
REMARK  148  A    between atoms: _396  and  _399
REMARK  149  A    between atoms: _399  and  _400
REMARK  150  A    between atoms: _402  and  _404
REMARK  151  A    between atoms: _404  and  _405
REMARK  152  A    between atoms: _404  and  _407
REMARK  153  A    between atoms: _407  and  _408
REMARK  154  A    between atoms: _408  and  _409
REMARK  155  A    between atoms: _409  and  _410
REMARK  156  A    between atoms: _410  and  _411
REMARK  157  A    between atoms: _415  and  _417
REMARK  158  A    between atoms: _417  and  _418
REMARK  159  A    between atoms: _417  and  _420
REMARK  160  A    between atoms: _420  and  _421
REMARK  161  A    between atoms: _426  and  _428
REMARK  162  A    between atoms: _428  and  _429
REMARK  163  A    between atoms: _428  and  _431
REMARK  164  A    between atoms: _431  and  _432
REMARK  165  A    between atoms: _432  and  _433
REMARK  166  A    between atoms: _436  and  _438
REMARK  167  A    between atoms: _438  and  _439
REMARK  168  A    between atoms: _438  and  _441
REMARK  169  A    between atoms: _444  and  _446
REMARK  170  A    between atoms: _446  and  _447
REMARK  171  A    between atoms: _446  and  _449
REMARK  172  A    between atoms: _449  and  _450
REMARK  173  A    between atoms: _453  and  _455
REMARK  174  A    between atoms: _455  and  _456
REMARK  175  A    between atoms: _455  and  _458
REMARK  176  A    between atoms: _458  and  _459
REMARK  177  A    between atoms: _462  and  _464
REMARK  178  A    between atoms: _464  and  _465
REMARK  179  A    between atoms: _464  and  _467
REMARK  180  A    between atoms: _467  and  _468
REMARK  181  A    between atoms: _471  and  _473
REMARK  182  A    between atoms: _473  and  _474
REMARK  183  A    between atoms: _476  and  _478
REMARK  184  A    between atoms: _478  and  _479
REMARK  185  A    between atoms: _478  and  _481
REMARK  186  A    between atoms: _481  and  _482
REMARK  187  A    between atoms: _482  and  _483
REMARK  188  A    between atoms: _486  and  _488
REMARK  189  A    between atoms: _488  and  _489
REMARK  190  A    between atoms: _488  and  _491
REMARK  191  A    between atoms: _491  and  _492
REMARK  192  A    between atoms: _495  and  _497
REMARK  193  A    between atoms: _497  and  _498
REMARK  194  A    between atoms: _497  and  _500
REMARK  195  A    between atoms: _500  and  _501
REMARK  196  A    between atoms: _507  and  _509
REMARK  197  A    between atoms: _509  and  _510
REMARK  198  A    between atoms: _509  and  _512
REMARK  199  A    between atoms: _512  and  _513
REMARK  200  A    between atoms: _518  and  _520
REMARK  201  A    between atoms: _520  and  _521
REMARK  202  A    between atoms: _520  and  _523
REMARK  203  A    between atoms: _523  and  _524
REMARK  204  A    between atoms: _529  and  _531
REMARK  205  A    between atoms: _531  and  _532
REMARK  206  A    between atoms: _531  and  _534
REMARK  207  A    between atoms: _534  and  _535
REMARK  208  A    between atoms: _538  and  _540
REMARK  209  A    between atoms: _540  and  _541
REMARK  210  A    between atoms: _540  and  _543
REMARK  211  A    between atoms: _543  and  _544
REMARK  212  A    between atoms: _549  and  _551
REMARK  213  A    between atoms: _551  and  _552
REMARK  214  A    between atoms: _551  and  _554
REMARK  215  A    between atoms: _554  and  _555
REMARK  216  A    between atoms: _555  and  _556
REMARK  217  A    between atoms: _556  and  _557
REMARK  218  A    between atoms: _566  and  _568
REMARK  219  A    between atoms: _568  and  _569
REMARK  220  A    between atoms: _571  and  _573
REMARK  221  A    between atoms: _573  and  _574
REMARK  222  A    between atoms: _573  and  _576
REMARK  223  A    between atoms: _576  and  _577
REMARK  224  A    between atoms: _582  and  _584
REMARK  225  A    between atoms: _584  and  _585
REMARK  226  A    between atoms: _587  and  _589
REMARK  227  A    between atoms: _589  and  _590
REMARK  228  A    between atoms: _593  and  _595
REMARK  229  A    between atoms: _595  and  _596
REMARK  230  A    between atoms: _598  and  _600
REMARK  231  A    between atoms: _600  and  _601
REMARK  232  A    between atoms: _600  and  _603
REMARK  233  A    between atoms: _603  and  _604
REMARK  234  A    between atoms: _604  and  _605
REMARK  235  A    between atoms: _605  and  _606
REMARK  236  A    between atoms: _615  and  _617
REMARK  237  A    between atoms: _617  and  _618
REMARK  238  A    between atoms: _617  and  _620
REMARK  239  A    between atoms: _620  and  _621
REMARK  240  A    between atoms: _624  and  _626
REMARK  241  A    between atoms: _626  and  _627
REMARK  242  A    between atoms: _626  and  _629
REMARK  243  A    between atoms: _629  and  _630
REMARK                            x       y       z     vdW  Elec       q    Type
REMARK                         _______ _______ _______ _____ _____    ______ ____
ROOT
ATOM      1  O   HOH     1       1.314  46.378   2.251  0.00  0.00    +0.000 OA
ENDROOT
TORSDOF 0
REMARK  Name = ../refined-set-2016/1ppi/1ppi_pocket.pdb
REMARK  243 active torsions:
REMARK  status: ('A' for Active; 'I' for Inactive)
REMARK    1  A    between atoms: _1  and  _3
REMARK    2  A    between atoms: _3  and  _4
REMARK    3  A    between atoms: _3  and  _6
REMARK    4  A    between atoms: _6  and  _7
REMARK    5  A    between atoms: _12  and  _14
REMARK    6  A    between atoms: _14  and  _15
REMARK    7  A    between atoms: _14  and  _17
REMARK    8  A    between atoms: _17  and  _18
REMARK    9  A    between atoms: _24  and  _26
REMARK   10  A    between atoms: _26  and  _27
REMARK   11  A    between atoms: _26  and  _29
REMARK   12  A    between atoms: _29  and  _30
REMARK   13  A    between atoms: _30  and  _31
REMARK   14  A    between atoms: _37  and  _38
REMARK   15  A    between atoms: _43  and  _45
REMARK   16  A    between atoms: _45  and  _46
REMARK   17  A    between atoms: _45  and  _48
REMARK   18  A    between atoms: _48  and  _49
REMARK   19  A    between atoms: _54  and  _56
REMARK   20  A    between atoms: _56  and  _57
REMARK   21  A    between atoms: _56  and  _59
REMARK   22  A    between atoms: _62  and  _64
REMARK   23  A    between atoms: _64  and  _65
REMARK   24  A    between atoms: _64  and  _67
REMARK   25  A    between atoms: _71  and  _72
REMARK   26  A    between atoms: _78  and  _79
REMARK   27  A    between atoms: _84  and  _86
REMARK   28  A    between atoms: _86  and  _87
REMARK   29  A    between atoms: _86  and  _89
REMARK   30  A    between atoms: _89  and  _90
REMARK   31  A    between atoms: _100  and  _102
REMARK   32  A    between atoms: _102  and  _103
REMARK   33  A    between atoms: _102  and  _105
REMARK   34  A    between atoms: _105  and  _106
REMARK   35  A    between atoms: _116  and  _118
REMARK   36  A    between atoms: _118  and  _119
REMARK   37  A    between atoms: _118  and  _121
REMARK   38  A    between atoms: _121  and  _122
REMARK   39  A    between atoms: _122  and  _123
REMARK   40  A    between atoms: _126  and  _128
REMARK   41  A    between atoms: _128  and  _129
REMARK   42  A    between atoms: _128  and  _131
REMARK   43  A    between atoms: _131  and  _132
REMARK   44  A    between atoms: _132  and  _133
REMARK   45  A    between atoms: _133  and  _134
REMARK   46  A    between atoms: _143  and  _145
REMARK   47  A    between atoms: _145  and  _146
REMARK   48  A    between atoms: _145  and  _148
REMARK   49  A    between atoms: _148  and  _149
REMARK   50  A    between atoms: _154  and  _155
REMARK   51  A    between atoms: _157  and  _159
REMARK   52  A    between atoms: _159  and  _160
REMARK   53  A    between atoms: _159  and  _162
REMARK   54  A    between atoms: _162  and  _163
REMARK   55  A    between atoms: _163  and  _164
REMARK   56  A    between atoms: _170  and  _171
REMARK   57  A    between atoms: _176  and  _178
REMARK   58  A    between atoms: _178  and  _179
REMARK   59  A    between atoms: _178  and  _181
REMARK   60  A    between atoms: _181  and  _182
REMARK   61  A    between atoms: _185  and  _187
REMARK   62  A    between atoms: _187  and  _188
REMARK   63  A    between atoms: _191  and  _193
REMARK   64  A    between atoms: _193  and  _194
REMARK   65  A    between atoms: _193  and  _196
REMARK   66  A    between atoms: _199  and  _201
REMARK   67  A    between atoms: _201  and  _202
REMARK   68  A    between atoms: _201  and  _204
REMARK   69  A    between atoms: _204  and  _205
REMARK   70  A    between atoms: _208  and  _210
REMARK   71  A    between atoms: _210  and  _211
REMARK   72  A    between atoms: _210  and  _213
REMARK   73  A    between atoms: _213  and  _214
REMARK   74  A    between atoms: _219  and  _221
REMARK   75  A    between atoms: _221  and  _222
REMARK   76  A    between atoms: _221  and  _224
REMARK   77  A    between atoms: _224  and  _225
REMARK   78  A    between atoms: _230  and  _232
REMARK   79  A    between atoms: _232  and  _233
REMARK   80  A    between atoms: _232  and  _235
REMARK   81  A    between atoms: _235  and  _236
REMARK   82  A    between atoms: _236  and  _237
REMARK   83  A    between atoms: _239  and  _241
REMARK   84  A    between atoms: _241  and  _242
REMARK   85  A    between atoms: _241  and  _244
REMARK   86  A    between atoms: _246  and  _248
REMARK   87  A    between atoms: _248  and  _249
REMARK   88  A    between atoms: _251  and  _253
REMARK   89  A    between atoms: _253  and  _254
REMARK   90  A    between atoms: _253  and  _256
REMARK   91  A    between atoms: _256  and  _257
REMARK   92  A    between atoms: _259  and  _261
REMARK   93  A    between atoms: _261  and  _262
REMARK   94  A    between atoms: _264  and  _266
REMARK   95  A    between atoms: _266  and  _267
REMARK   96  A    between atoms: _270  and  _272
REMARK   97  A    between atoms: _272  and  _273
REMARK   98  A    between atoms: _272  and  _275
REMARK   99  A    between atoms: _275  and  _276
REMARK  100  A    between atoms: _279  and  _281
REMARK  101  A    between atoms: _281  and  _282
REMARK  102  A    between atoms: _281  and  _284
REMARK  103  A    between atoms: _284  and  _285
REMARK  104  A    between atoms: _290  and  _291
REMARK  105  A    between atoms: _293  and  _295
REMARK  106  A    between atoms: _295  and  _296
REMARK  107  A    between atoms: _295  and  _298
REMARK  108  A    between atoms: _301  and  _303
REMARK  109  A    between atoms: _303  and  _304
REMARK  110  A    between atoms: _303  and  _306
REMARK  111  A    between atoms: _306  and  _307
REMARK  112  A    between atoms: _307  and  _308
REMARK  113  A    between atoms: _313  and  _315
REMARK  114  A    between atoms: _315  and  _316
REMARK  115  A    between atoms: _315  and  _318
REMARK  116  A    between atoms: _318  and  _319
REMARK  117  A    between atoms: _322  and  _324
REMARK  118  A    between atoms: _324  and  _325
REMARK  119  A    between atoms: _324  and  _327
REMARK  120  A    between atoms: _330  and  _332
REMARK  121  A    between atoms: _332  and  _333
REMARK  122  A    between atoms: _335  and  _337
REMARK  123  A    between atoms: _337  and  _338
REMARK  124  A    between atoms: _337  and  _340
REMARK  125  A    between atoms: _340  and  _341
REMARK  126  A    between atoms: _344  and  _346
REMARK  127  A    between atoms: _346  and  _347
REMARK  128  A    between atoms: _346  and  _349
REMARK  129  A    between atoms: _349  and  _350
REMARK  130  A    between atoms: _353  and  _355
REMARK  131  A    between atoms: _355  and  _356
REMARK  132  A    between atoms: _355  and  _358
REMARK  133  A    between atoms: _358  and  _359
REMARK  134  A    between atoms: _359  and  _360
REMARK  135  A    between atoms: _360  and  _361
REMARK  136  A    between atoms: _370  and  _372
REMARK  137  A    between atoms: _372  and  _373
REMARK  138  A    between atoms: _372  and  _375
REMARK  139  A    between atoms: _375  and  _376
REMARK  140  A    between atoms: _379  and  _381
REMARK  141  A    between atoms: _381  and  _382
REMARK  142  A    between atoms: _381  and  _384
REMARK  143  A    between atoms: _384  and  _385
REMARK  144  A    between atoms: _388  and  _390
REMARK  145  A    between atoms: _390  and  _391
REMARK  146  A    between atoms: _394  and  _396
REMARK  147  A    between atoms: _396  and  _397
REMARK  148  A    between atoms: _396  and  _399
REMARK  149  A    between atoms: _399  and  _400
REMARK  150  A    between atoms: _402  and  _404
REMARK  151  A    between atoms: _404  and  _405
REMARK  152  A    between atoms: _404  and  _407
REMARK  153  A    between atoms: _407  and  _408
REMARK  154  A    between atoms: _408  and  _409
REMARK  155  A    between atoms: _409  and  _410
REMARK  156  A    between atoms: _410  and  _411
REMARK  157  A    between atoms: _415  and  _417
REMARK  158  A    between atoms: _417  and  _418
REMARK  159  A    between atoms: _417  and  _420
REMARK  160  A    between atoms: _420  and  _421
REMARK  161  A    between atoms: _426  and  _428
REMARK  162  A    between atoms: _428  and  _429
REMARK  163  A    between atoms: _428  and  _431
REMARK  164  A    between atoms: _431  and  _432
REMARK  165  A    between atoms: _432  and  _433
REMARK  166  A    between atoms: _436  and  _438
REMARK  167  A    between atoms: _438  and  _439
REMARK  168  A    between atoms: _438  and  _441
REMARK  169  A    between atoms: _444  and  _446
REMARK  170  A    between atoms: _446  and  _447
REMARK  171  A    between atoms: _446  and  _449
REMARK  172  A    between atoms: _449  and  _450
REMARK  173  A    between atoms: _453  and  _455
REMARK  174  A    between atoms: _455  and  _456
REMARK  175  A    between atoms: _455  and  _458
REMARK  176  A    between atoms: _458  and  _459
REMARK  177  A    between atoms: _462  and  _464
REMARK  178  A    between atoms: _464  and  _465
REMARK  179  A    between atoms: _464  and  _467
REMARK  180  A    between atoms: _467  and  _468
REMARK  181  A    between atoms: _471  and  _473
REMARK  182  A    between atoms: _473  and  _474
REMARK  183  A    between atoms: _476  and  _478
REMARK  184  A    between atoms: _478  and  _479
REMARK  185  A    between atoms: _478  and  _481
REMARK  186  A    between atoms: _481  and  _482
REMARK  187  A    between atoms: _482  and  _483
REMARK  188  A    between atoms: _486  and  _488
REMARK  189  A    between atoms: _488  and  _489
REMARK  190  A    between atoms: _488  and  _491
REMARK  191  A    between atoms: _491  and  _492
REMARK  192  A    between atoms: _495  and  _497
REMARK  193  A    between atoms: _497  and  _498
REMARK  194  A    between atoms: _497  and  _500
REMARK  195  A    between atoms: _500  and  _501
REMARK  196  A    between atoms: _507  and  _509
REMARK  197  A    between atoms: _509  and  _510
REMARK  198  A    between atoms: _509  and  _512
REMARK  199  A    between atoms: _512  and  _513
REMARK  200  A    between atoms: _518  and  _520
REMARK  201  A    between atoms: _520  and  _521
REMARK  202  A    between atoms: _520  and  _523
REMARK  203  A    between atoms: _523  and  _524
REMARK  204  A    between atoms: _529  and  _531
REMARK  205  A    between atoms: _531  and  _532
REMARK  206  A    between atoms: _531  and  _534
REMARK  207  A    between atoms: _534  and  _535
REMARK  208  A    between atoms: _538  and  _540
REMARK  209  A    between atoms: _540  and  _541
REMARK  210  A    between atoms: _540  and  _543
REMARK  211  A    between atoms: _543  and  _544
REMARK  212  A    between atoms: _549  and  _551
REMARK  213  A    between atoms: _551  and  _552
REMARK  214  A    between atoms: _551  and  _554
REMARK  215  A    between atoms: _554  and  _555
REMARK  216  A    between atoms: _555  and  _556
REMARK  217  A    between atoms: _556  and  _557
REMARK  218  A    between atoms: _566  and  _568
REMARK  219  A    between atoms: _568  and  _569
REMARK  220  A    between atoms: _571  and  _573
REMARK  221  A    between atoms: _573  and  _574
REMARK  222  A    between atoms: _573  and  _576
REMARK  223  A    between atoms: _576  and  _577
REMARK  224  A    between atoms: _582  and  _584
REMARK  225  A    between atoms: _584  and  _585
REMARK  226  A    between atoms: _587  and  _589
REMARK  227  A    between atoms: _589  and  _590
REMARK  228  A    between atoms: _593  and  _595
REMARK  229  A    between atoms: _595  and  _596
REMARK  230  A    between atoms: _598  and  _600
REMARK  231  A    between atoms: _600  and  _601
REMARK  232  A    between atoms: _600  and  _603
REMARK  233  A    between atoms: _603  and  _604
REMARK  234  A    between atoms: _604  and  _605
REMARK  235  A    between atoms: _605  and  _606
REMARK  236  A    between atoms: _615  and  _617
REMARK  237  A    between atoms: _617  and  _618
REMARK  238  A    between atoms: _617  and  _620
REMARK  239  A    between atoms: _620  and  _621
REMARK  240  A    between atoms: _624  and  _626
REMARK  241  A    between atoms: _626  and  _627
REMARK  242  A    between atoms: _626  and  _629
REMARK  243  A    between atoms: _629  and  _630
REMARK                            x       y       z     vdW  Elec       q    Type
REMARK                         _______ _______ _______ _____ _____    ______ ____
ROOT
ATOM      1  O   HOH     1     -10.282  46.953  12.120  0.00  0.00    +0.000 OA
ENDROOT
TORSDOF 0
REMARK  Name = ../refined-set-2016/1ppi/1ppi_pocket.pdb
REMARK  243 active torsions:
REMARK  status: ('A' for Active; 'I' for Inactive)
REMARK    1  A    between atoms: _1  and  _3
REMARK    2  A    between atoms: _3  and  _4
REMARK    3  A    between atoms: _3  and  _6
REMARK    4  A    between atoms: _6  and  _7
REMARK    5  A    between atoms: _12  and  _14
REMARK    6  A    between atoms: _14  and  _15
REMARK    7  A    between atoms: _14  and  _17
REMARK    8  A    between atoms: _17  and  _18
REMARK    9  A    between atoms: _24  and  _26
REMARK   10  A    between atoms: _26  and  _27
REMARK   11  A    between atoms: _26  and  _29
REMARK   12  A    between atoms: _29  and  _30
REMARK   13  A    between atoms: _30  and  _31
REMARK   14  A    between atoms: _37  and  _38
REMARK   15  A    between atoms: _43  and  _45
REMARK   16  A    between atoms: _45  and  _46
REMARK   17  A    between atoms: _45  and  _48
REMARK   18  A    between atoms: _48  and  _49
REMARK   19  A    between atoms: _54  and  _56
REMARK   20  A    between atoms: _56  and  _57
REMARK   21  A    between atoms: _56  and  _59
REMARK   22  A    between atoms: _62  and  _64
REMARK   23  A    between atoms: _64  and  _65
REMARK   24  A    between atoms: _64  and  _67
REMARK   25  A    between atoms: _71  and  _72
REMARK   26  A    between atoms: _78  and  _79
REMARK   27  A    between atoms: _84  and  _86
REMARK   28  A    between atoms: _86  and  _87
REMARK   29  A    between atoms: _86  and  _89
REMARK   30  A    between atoms: _89  and  _90
REMARK   31  A    between atoms: _100  and  _102
REMARK   32  A    between atoms: _102  and  _103
REMARK   33  A    between atoms: _102  and  _105
REMARK   34  A    between atoms: _105  and  _106
REMARK   35  A    between atoms: _116  and  _118
REMARK   36  A    between atoms: _118  and  _119
REMARK   37  A    between atoms: _118  and  _121
REMARK   38  A    between atoms: _121  and  _122
REMARK   39  A    between atoms: _122  and  _123
REMARK   40  A    between atoms: _126  and  _128
REMARK   41  A    between atoms: _128  and  _129
REMARK   42  A    between atoms: _128  and  _131
REMARK   43  A    between atoms: _131  and  _132
REMARK   44  A    between atoms: _132  and  _133
REMARK   45  A    between atoms: _133  and  _134
REMARK   46  A    between atoms: _143  and  _145
REMARK   47  A    between atoms: _145  and  _146
REMARK   48  A    between atoms: _145  and  _148
REMARK   49  A    between atoms: _148  and  _149
REMARK   50  A    between atoms: _154  and  _155
REMARK   51  A    between atoms: _157  and  _159
REMARK   52  A    between atoms: _159  and  _160
REMARK   53  A    between atoms: _159  and  _162
REMARK   54  A    between atoms: _162  and  _163
REMARK   55  A    between atoms: _163  and  _164
REMARK   56  A    between atoms: _170  and  _171
REMARK   57  A    between atoms: _176  and  _178
REMARK   58  A    between atoms: _178  and  _179
REMARK   59  A    between atoms: _178  and  _181
REMARK   60  A    between atoms: _181  and  _182
REMARK   61  A    between atoms: _185  and  _187
REMARK   62  A    between atoms: _187  and  _188
REMARK   63  A    between atoms: _191  and  _193
REMARK   64  A    between atoms: _193  and  _194
REMARK   65  A    between atoms: _193  and  _196
REMARK   66  A    between atoms: _199  and  _201
REMARK   67  A    between atoms: _201  and  _202
REMARK   68  A    between atoms: _201  and  _204
REMARK   69  A    between atoms: _204  and  _205
REMARK   70  A    between atoms: _208  and  _210
REMARK   71  A    between atoms: _210  and  _211
REMARK   72  A    between atoms: _210  and  _213
REMARK   73  A    between atoms: _213  and  _214
REMARK   74  A    between atoms: _219  and  _221
REMARK   75  A    between atoms: _221  and  _222
REMARK   76  A    between atoms: _221  and  _224
REMARK   77  A    between atoms: _224  and  _225
REMARK   78  A    between atoms: _230  and  _232
REMARK   79  A    between atoms: _232  and  _233
REMARK   80  A    between atoms: _232  and  _235
REMARK   81  A    between atoms: _235  and  _236
REMARK   82  A    between atoms: _236  and  _237
REMARK   83  A    between atoms: _239  and  _241
REMARK   84  A    between atoms: _241  and  _242
REMARK   85  A    between atoms: _241  and  _244
REMARK   86  A    between atoms: _246  and  _248
REMARK   87  A    between atoms: _248  and  _249
REMARK   88  A    between atoms: _251  and  _253
REMARK   89  A    between atoms: _253  and  _254
REMARK   90  A    between atoms: _253  and  _256
REMARK   91  A    between atoms: _256  and  _257
REMARK   92  A    between atoms: _259  and  _261
REMARK   93  A    between atoms: _261  and  _262
REMARK   94  A    between atoms: _264  and  _266
REMARK   95  A    between atoms: _266  and  _267
REMARK   96  A    between atoms: _270  and  _272
REMARK   97  A    between atoms: _272  and  _273
REMARK   98  A    between atoms: _272  and  _275
REMARK   99  A    between atoms: _275  and  _276
REMARK  100  A    between atoms: _279  and  _281
REMARK  101  A    between atoms: _281  and  _282
REMARK  102  A    between atoms: _281  and  _284
REMARK  103  A    between atoms: _284  and  _285
REMARK  104  A    between atoms: _290  and  _291
REMARK  105  A    between atoms: _293  and  _295
REMARK  106  A    between atoms: _295  and  _296
REMARK  107  A    between atoms: _295  and  _298
REMARK  108  A    between atoms: _301  and  _303
REMARK  109  A    between atoms: _303  and  _304
REMARK  110  A    between atoms: _303  and  _306
REMARK  111  A    between atoms: _306  and  _307
REMARK  112  A    between atoms: _307  and  _308
REMARK  113  A    between atoms: _313  and  _315
REMARK  114  A    between atoms: _315  and  _316
REMARK  115  A    between atoms: _315  and  _318
REMARK  116  A    between atoms: _318  and  _319
REMARK  117  A    between atoms: _322  and  _324
REMARK  118  A    between atoms: _324  and  _325
REMARK  119  A    between atoms: _324  and  _327
REMARK  120  A    between atoms: _330  and  _332
REMARK  121  A    between atoms: _332  and  _333
REMARK  122  A    between atoms: _335  and  _337
REMARK  123  A    between atoms: _337  and  _338
REMARK  124  A    between atoms: _337  and  _340
REMARK  125  A    between atoms: _340  and  _341
REMARK  126  A    between atoms: _344  and  _346
REMARK  127  A    between atoms: _346  and  _347
REMARK  128  A    between atoms: _346  and  _349
REMARK  129  A    between atoms: _349  and  _350
REMARK  130  A    between atoms: _353  and  _355
REMARK  131  A    between atoms: _355  and  _356
REMARK  132  A    between atoms: _355  and  _358
REMARK  133  A    between atoms: _358  and  _359
REMARK  134  A    between atoms: _359  and  _360
REMARK  135  A    between atoms: _360  and  _361
REMARK  136  A    between atoms: _370  and  _372
REMARK  137  A    between atoms: _372  and  _373
REMARK  138  A    between atoms: _372  and  _375
REMARK  139  A    between atoms: _375  and  _376
REMARK  140  A    between atoms: _379  and  _381
REMARK  141  A    between atoms: _381  and  _382
REMARK  142  A    between atoms: _381  and  _384
REMARK  143  A    between atoms: _384  and  _385
REMARK  144  A    between atoms: _388  and  _390
REMARK  145  A    between atoms: _390  and  _391
REMARK  146  A    between atoms: _394  and  _396
REMARK  147  A    between atoms: _396  and  _397
REMARK  148  A    between atoms: _396  and  _399
REMARK  149  A    between atoms: _399  and  _400
REMARK  150  A    between atoms: _402  and  _404
REMARK  151  A    between atoms: _404  and  _405
REMARK  152  A    between atoms: _404  and  _407
REMARK  153  A    between atoms: _407  and  _408
REMARK  154  A    between atoms: _408  and  _409
REMARK  155  A    between atoms: _409  and  _410
REMARK  156  A    between atoms: _410  and  _411
REMARK  157  A    between atoms: _415  and  _417
REMARK  158  A    between atoms: _417  and  _418
REMARK  159  A    between atoms: _417  and  _420
REMARK  160  A    between atoms: _420  and  _421
REMARK  161  A    between atoms: _426  and  _428
REMARK  162  A    between atoms: _428  and  _429
REMARK  163  A    between atoms: _428  and  _431
REMARK  164  A    between atoms: _431  and  _432
REMARK  165  A    between atoms: _432  and  _433
REMARK  166  A    between atoms: _436  and  _438
REMARK  167  A    between atoms: _438  and  _439
REMARK  168  A    between atoms: _438  and  _441
REMARK  169  A    between atoms: _444  and  _446
REMARK  170  A    between atoms: _446  and  _447
REMARK  171  A    between atoms: _446  and  _449
REMARK  172  A    between atoms: _449  and  _450
REMARK  173  A    between atoms: _453  and  _455
REMARK  174  A    between atoms: _455  and  _456
REMARK  175  A    between atoms: _455  and  _458
REMARK  176  A    between atoms: _458  and  _459
REMARK  177  A    between atoms: _462  and  _464
REMARK  178  A    between atoms: _464  and  _465
REMARK  179  A    between atoms: _464  and  _467
REMARK  180  A    between atoms: _467  and  _468
REMARK  181  A    between atoms: _471  and  _473
REMARK  182  A    between atoms: _473  and  _474
REMARK  183  A    between atoms: _476  and  _478
REMARK  184  A    between atoms: _478  and  _479
REMARK  185  A    between atoms: _478  and  _481
REMARK  186  A    between atoms: _481  and  _482
REMARK  187  A    between atoms: _482  and  _483
REMARK  188  A    between atoms: _486  and  _488
REMARK  189  A    between atoms: _488  and  _489
REMARK  190  A    between atoms: _488  and  _491
REMARK  191  A    between atoms: _491  and  _492
REMARK  192  A    between atoms: _495  and  _497
REMARK  193  A    between atoms: _497  and  _498
REMARK  194  A    between atoms: _497  and  _500
REMARK  195  A    between atoms: _500  and  _501
REMARK  196  A    between atoms: _507  and  _509
REMARK  197  A    between atoms: _509  and  _510
REMARK  198  A    between atoms: _509  and  _512
REMARK  199  A    between atoms: _512  and  _513
REMARK  200  A    between atoms: _518  and  _520
REMARK  201  A    between atoms: _520  and  _521
REMARK  202  A    between atoms: _520  and  _523
REMARK  203  A    between atoms: _523  and  _524
REMARK  204  A    between atoms: _529  and  _531
REMARK  205  A    between atoms: _531  and  _532
REMARK  206  A    between atoms: _531  and  _534
REMARK  207  A    between atoms: _534  and  _535
REMARK  208  A    between atoms: _538  and  _540
REMARK  209  A    between atoms: _540  and  _541
REMARK  210  A    between atoms: _540  and  _543
REMARK  211  A    between atoms: _543  and  _544
REMARK  212  A    between atoms: _549  and  _551
REMARK  213  A    between atoms: _551  and  _552
REMARK  214  A    between atoms: _551  and  _554
REMARK  215  A    between atoms: _554  and  _555
REMARK  216  A    between atoms: _555  and  _556
REMARK  217  A    between atoms: _556  and  _557
REMARK  218  A    between atoms: _566  and  _568
REMARK  219  A    between atoms: _568  and  _569
REMARK  220  A    between atoms: _571  and  _573
REMARK  221  A    between atoms: _573  and  _574
REMARK  222  A    between atoms: _573  and  _576
REMARK  223  A    between atoms: _576  and  _577
REMARK  224  A    between atoms: _582  and  _584
REMARK  225  A    between atoms: _584  and  _585
REMARK  226  A    between atoms: _587  and  _589
REMARK  227  A    between atoms: _589  and  _590
REMARK  228  A    between atoms: _593  and  _595
REMARK  229  A    between atoms: _595  and  _596
REMARK  230  A    between atoms: _598  and  _600
REMARK  231  A    between atoms: _600  and  _601
REMARK  232  A    between atoms: _600  and  _603
REMARK  233  A    between atoms: _603  and  _604
REMARK  234  A    between atoms: _604  and  _605
REMARK  235  A    between atoms: _605  and  _606
REMARK  236  A    between atoms: _615  and  _617
REMARK  237  A    between atoms: _617  and  _618
REMARK  238  A    between atoms: _617  and  _620
REMARK  239  A    between atoms: _620  and  _621
REMARK  240  A    between atoms: _624  and  _626
REMARK  241  A    between atoms: _626  and  _627
REMARK  242  A    between atoms: _626  and  _629
REMARK  243  A    between atoms: _629  and  _630
REMARK                            x       y       z     vdW  Elec       q    Type
REMARK                         _______ _______ _______ _____ _____    ______ ____
ROOT
ATOM      1  O   HOH     1      -4.549  35.672  19.437  0.00  0.00    +0.000 OA
ENDROOT
TORSDOF 0
REMARK  Name = ../refined-set-2016/1ppi/1ppi_pocket.pdb
REMARK  243 active torsions:
REMARK  status: ('A' for Active; 'I' for Inactive)
REMARK    1  A    between atoms: _1  and  _3
REMARK    2  A    between atoms: _3  and  _4
REMARK    3  A    between atoms: _3  and  _6
REMARK    4  A    between atoms: _6  and  _7
REMARK    5  A    between atoms: _12  and  _14
REMARK    6  A    between atoms: _14  and  _15
REMARK    7  A    between atoms: _14  and  _17
REMARK    8  A    between atoms: _17  and  _18
REMARK    9  A    between atoms: _24  and  _26
REMARK   10  A    between atoms: _26  and  _27
REMARK   11  A    between atoms: _26  and  _29
REMARK   12  A    between atoms: _29  and  _30
REMARK   13  A    between atoms: _30  and  _31
REMARK   14  A    between atoms: _37  and  _38
REMARK   15  A    between atoms: _43  and  _45
REMARK   16  A    between atoms: _45  and  _46
REMARK   17  A    between atoms: _45  and  _48
REMARK   18  A    between atoms: _48  and  _49
REMARK   19  A    between atoms: _54  and  _56
REMARK   20  A    between atoms: _56  and  _57
REMARK   21  A    between atoms: _56  and  _59
REMARK   22  A    between atoms: _62  and  _64
REMARK   23  A    between atoms: _64  and  _65
REMARK   24  A    between atoms: _64  and  _67
REMARK   25  A    between atoms: _71  and  _72
REMARK   26  A    between atoms: _78  and  _79
REMARK   27  A    between atoms: _84  and  _86
REMARK   28  A    between atoms: _86  and  _87
REMARK   29  A    between atoms: _86  and  _89
REMARK   30  A    between atoms: _89  and  _90
REMARK   31  A    between atoms: _100  and  _102
REMARK   32  A    between atoms: _102  and  _103
REMARK   33  A    between atoms: _102  and  _105
REMARK   34  A    between atoms: _105  and  _106
REMARK   35  A    between atoms: _116  and  _118
REMARK   36  A    between atoms: _118  and  _119
REMARK   37  A    between atoms: _118  and  _121
REMARK   38  A    between atoms: _121  and  _122
REMARK   39  A    between atoms: _122  and  _123
REMARK   40  A    between atoms: _126  and  _128
REMARK   41  A    between atoms: _128  and  _129
REMARK   42  A    between atoms: _128  and  _131
REMARK   43  A    between atoms: _131  and  _132
REMARK   44  A    between atoms: _132  and  _133
REMARK   45  A    between atoms: _133  and  _134
REMARK   46  A    between atoms: _143  and  _145
REMARK   47  A    between atoms: _145  and  _146
REMARK   48  A    between atoms: _145  and  _148
REMARK   49  A    between atoms: _148  and  _149
REMARK   50  A    between atoms: _154  and  _155
REMARK   51  A    between atoms: _157  and  _159
REMARK   52  A    between atoms: _159  and  _160
REMARK   53  A    between atoms: _159  and  _162
REMARK   54  A    between atoms: _162  and  _163
REMARK   55  A    between atoms: _163  and  _164
REMARK   56  A    between atoms: _170  and  _171
REMARK   57  A    between atoms: _176  and  _178
REMARK   58  A    between atoms: _178  and  _179
REMARK   59  A    between atoms: _178  and  _181
REMARK   60  A    between atoms: _181  and  _182
REMARK   61  A    between atoms: _185  and  _187
REMARK   62  A    between atoms: _187  and  _188
REMARK   63  A    between atoms: _191  and  _193
REMARK   64  A    between atoms: _193  and  _194
REMARK   65  A    between atoms: _193  and  _196
REMARK   66  A    between atoms: _199  and  _201
REMARK   67  A    between atoms: _201  and  _202
REMARK   68  A    between atoms: _201  and  _204
REMARK   69  A    between atoms: _204  and  _205
REMARK   70  A    between atoms: _208  and  _210
REMARK   71  A    between atoms: _210  and  _211
REMARK   72  A    between atoms: _210  and  _213
REMARK   73  A    between atoms: _213  and  _214
REMARK   74  A    between atoms: _219  and  _221
REMARK   75  A    between atoms: _221  and  _222
REMARK   76  A    between atoms: _221  and  _224
REMARK   77  A    between atoms: _224  and  _225
REMARK   78  A    between atoms: _230  and  _232
REMARK   79  A    between atoms: _232  and  _233
REMARK   80  A    between atoms: _232  and  _235
REMARK   81  A    between atoms: _235  and  _236
REMARK   82  A    between atoms: _236  and  _237
REMARK   83  A    between atoms: _239  and  _241
REMARK   84  A    between atoms: _241  and  _242
REMARK   85  A    between atoms: _241  and  _244
REMARK   86  A    between atoms: _246  and  _248
REMARK   87  A    between atoms: _248  and  _249
REMARK   88  A    between atoms: _251  and  _253
REMARK   89  A    between atoms: _253  and  _254
REMARK   90  A    between atoms: _253  and  _256
REMARK   91  A    between atoms: _256  and  _257
REMARK   92  A    between atoms: _259  and  _261
REMARK   93  A    between atoms: _261  and  _262
REMARK   94  A    between atoms: _264  and  _266
REMARK   95  A    between atoms: _266  and  _267
REMARK   96  A    between atoms: _270  and  _272
REMARK   97  A    between atoms: _272  and  _273
REMARK   98  A    between atoms: _272  and  _275
REMARK   99  A    between atoms: _275  and  _276
REMARK  100  A    between atoms: _279  and  _281
REMARK  101  A    between atoms: _281  and  _282
REMARK  102  A    between atoms: _281  and  _284
REMARK  103  A    between atoms: _284  and  _285
REMARK  104  A    between atoms: _290  and  _291
REMARK  105  A    between atoms: _293  and  _295
REMARK  106  A    between atoms: _295  and  _296
REMARK  107  A    between atoms: _295  and  _298
REMARK  108  A    between atoms: _301  and  _303
REMARK  109  A    between atoms: _303  and  _304
REMARK  110  A    between atoms: _303  and  _306
REMARK  111  A    between atoms: _306  and  _307
REMARK  112  A    between atoms: _307  and  _308
REMARK  113  A    between atoms: _313  and  _315
REMARK  114  A    between atoms: _315  and  _316
REMARK  115  A    between atoms: _315  and  _318
REMARK  116  A    between atoms: _318  and  _319
REMARK  117  A    between atoms: _322  and  _324
REMARK  118  A    between atoms: _324  and  _325
REMARK  119  A    between atoms: _324  and  _327
REMARK  120  A    between atoms: _330  and  _332
REMARK  121  A    between atoms: _332  and  _333
REMARK  122  A    between atoms: _335  and  _337
REMARK  123  A    between atoms: _337  and  _338
REMARK  124  A    between atoms: _337  and  _340
REMARK  125  A    between atoms: _340  and  _341
REMARK  126  A    between atoms: _344  and  _346
REMARK  127  A    between atoms: _346  and  _347
REMARK  128  A    between atoms: _346  and  _349
REMARK  129  A    between atoms: _349  and  _350
REMARK  130  A    between atoms: _353  and  _355
REMARK  131  A    between atoms: _355  and  _356
REMARK  132  A    between atoms: _355  and  _358
REMARK  133  A    between atoms: _358  and  _359
REMARK  134  A    between atoms: _359  and  _360
REMARK  135  A    between atoms: _360  and  _361
REMARK  136  A    between atoms: _370  and  _372
REMARK  137  A    between atoms: _372  and  _373
REMARK  138  A    between atoms: _372  and  _375
REMARK  139  A    between atoms: _375  and  _376
REMARK  140  A    between atoms: _379  and  _381
REMARK  141  A    between atoms: _381  and  _382
REMARK  142  A    between atoms: _381  and  _384
REMARK  143  A    between atoms: _384  and  _385
REMARK  144  A    between atoms: _388  and  _390
REMARK  145  A    between atoms: _390  and  _391
REMARK  146  A    between atoms: _394  and  _396
REMARK  147  A    between atoms: _396  and  _397
REMARK  148  A    between atoms: _396  and  _399
REMARK  149  A    between atoms: _399  and  _400
REMARK  150  A    between atoms: _402  and  _404
REMARK  151  A    between atoms: _404  and  _405
REMARK  152  A    between atoms: _404  and  _407
REMARK  153  A    between atoms: _407  and  _408
REMARK  154  A    between atoms: _408  and  _409
REMARK  155  A    between atoms: _409  and  _410
REMARK  156  A    between atoms: _410  and  _411
REMARK  157  A    between atoms: _415  and  _417
REMARK  158  A    between atoms: _417  and  _418
REMARK  159  A    between atoms: _417  and  _420
REMARK  160  A    between atoms: _420  and  _421
REMARK  161  A    between atoms: _426  and  _428
REMARK  162  A    between atoms: _428  and  _429
REMARK  163  A    between atoms: _428  and  _431
REMARK  164  A    between atoms: _431  and  _432
REMARK  165  A    between atoms: _432  and  _433
REMARK  166  A    between atoms: _436  and  _438
REMARK  167  A    between atoms: _438  and  _439
REMARK  168  A    between atoms: _438  and  _441
REMARK  169  A    between atoms: _444  and  _446
REMARK  170  A    between atoms: _446  and  _447
REMARK  171  A    between atoms: _446  and  _449
REMARK  172  A    between atoms: _449  and  _450
REMARK  173  A    between atoms: _453  and  _455
REMARK  174  A    between atoms: _455  and  _456
REMARK  175  A    between atoms: _455  and  _458
REMARK  176  A    between atoms: _458  and  _459
REMARK  177  A    between atoms: _462  and  _464
REMARK  178  A    between atoms: _464  and  _465
REMARK  179  A    between atoms: _464  and  _467
REMARK  180  A    between atoms: _467  and  _468
REMARK  181  A    between atoms: _471  and  _473
REMARK  182  A    between atoms: _473  and  _474
REMARK  183  A    between atoms: _476  and  _478
REMARK  184  A    between atoms: _478  and  _479
REMARK  185  A    between atoms: _478  and  _481
REMARK  186  A    between atoms: _481  and  _482
REMARK  187  A    between atoms: _482  and  _483
REMARK  188  A    between atoms: _486  and  _488
REMARK  189  A    between atoms: _488  and  _489
REMARK  190  A    between atoms: _488  and  _491
REMARK  191  A    between atoms: _491  and  _492
REMARK  192  A    between atoms: _495  and  _497
REMARK  193  A    between atoms: _497  and  _498
REMARK  194  A    between atoms: _497  and  _500
REMARK  195  A    between atoms: _500  and  _501
REMARK  196  A    between atoms: _507  and  _509
REMARK  197  A    between atoms: _509  and  _510
REMARK  198  A    between atoms: _509  and  _512
REMARK  199  A    between atoms: _512  and  _513
REMARK  200  A    between atoms: _518  and  _520
REMARK  201  A    between atoms: _520  and  _521
REMARK  202  A    between atoms: _520  and  _523
REMARK  203  A    between atoms: _523  and  _524
REMARK  204  A    between atoms: _529  and  _531
REMARK  205  A    between atoms: _531  and  _532
REMARK  206  A    between atoms: _531  and  _534
REMARK  207  A    between atoms: _534  and  _535
REMARK  208  A    between atoms: _538  and  _540
REMARK  209  A    between atoms: _540  and  _541
REMARK  210  A    between atoms: _540  and  _543
REMARK  211  A    between atoms: _543  and  _544
REMARK  212  A    between atoms: _549  and  _551
REMARK  213  A    between atoms: _551  and  _552
REMARK  214  A    between atoms: _551  and  _554
REMARK  215  A    between atoms: _554  and  _555
REMARK  216  A    between atoms: _555  and  _556
REMARK  217  A    between atoms: _556  and  _557
REMARK  218  A    between atoms: _566  and  _568
REMARK  219  A    between atoms: _568  and  _569
REMARK  220  A    between atoms: _571  and  _573
REMARK  221  A    between atoms: _573  and  _574
REMARK  222  A    between atoms: _573  and  _576
REMARK  223  A    between atoms: _576  and  _577
REMARK  224  A    between atoms: _582  and  _584
REMARK  225  A    between atoms: _584  and  _585
REMARK  226  A    between atoms: _587  and  _589
REMARK  227  A    between atoms: _589  and  _590
REMARK  228  A    between atoms: _593  and  _595
REMARK  229  A    between atoms: _595  and  _596
REMARK  230  A    between atoms: _598  and  _600
REMARK  231  A    between atoms: _600  and  _601
REMARK  232  A    between atoms: _600  and  _603
REMARK  233  A    between atoms: _603  and  _604
REMARK  234  A    between atoms: _604  and  _605
REMARK  235  A    between atoms: _605  and  _606
REMARK  236  A    between atoms: _615  and  _617
REMARK  237  A    between atoms: _617  and  _618
REMARK  238  A    between atoms: _617  and  _620
REMARK  239  A    between atoms: _620  and  _621
REMARK  240  A    between atoms: _624  and  _626
REMARK  241  A    between atoms: _626  and  _627
REMARK  242  A    between atoms: _626  and  _629
REMARK  243  A    between atoms: _629  and  _630
REMARK                            x       y       z     vdW  Elec       q    Type
REMARK                         _______ _______ _______ _____ _____    ______ ____
ROOT
ATOM      1  O   HOH     1      -2.624  40.066  13.207  0.00  0.00    +0.000 OA
ENDROOT
TORSDOF 0
REMARK  Name = ../refined-set-2016/1ppi/1ppi_pocket.pdb
REMARK  243 active torsions:
REMARK  status: ('A' for Active; 'I' for Inactive)
REMARK    1  A    between atoms: _1  and  _3
REMARK    2  A    between atoms: _3  and  _4
REMARK    3  A    between atoms: _3  and  _6
REMARK    4  A    between atoms: _6  and  _7
REMARK    5  A    between atoms: _12  and  _14
REMARK    6  A    between atoms: _14  and  _15
REMARK    7  A    between atoms: _14  and  _17
REMARK    8  A    between atoms: _17  and  _18
REMARK    9  A    between atoms: _24  and  _26
REMARK   10  A    between atoms: _26  and  _27
REMARK   11  A    between atoms: _26  and  _29
REMARK   12  A    between atoms: _29  and  _30
REMARK   13  A    between atoms: _30  and  _31
REMARK   14  A    between atoms: _37  and  _38
REMARK   15  A    between atoms: _43  and  _45
REMARK   16  A    between atoms: _45  and  _46
REMARK   17  A    between atoms: _45  and  _48
REMARK   18  A    between atoms: _48  and  _49
REMARK   19  A    between atoms: _54  and  _56
REMARK   20  A    between atoms: _56  and  _57
REMARK   21  A    between atoms: _56  and  _59
REMARK   22  A    between atoms: _62  and  _64
REMARK   23  A    between atoms: _64  and  _65
REMARK   24  A    between atoms: _64  and  _67
REMARK   25  A    between atoms: _71  and  _72
REMARK   26  A    between atoms: _78  and  _79
REMARK   27  A    between atoms: _84  and  _86
REMARK   28  A    between atoms: _86  and  _87
REMARK   29  A    between atoms: _86  and  _89
REMARK   30  A    between atoms: _89  and  _90
REMARK   31  A    between atoms: _100  and  _102
REMARK   32  A    between atoms: _102  and  _103
REMARK   33  A    between atoms: _102  and  _105
REMARK   34  A    between atoms: _105  and  _106
REMARK   35  A    between atoms: _116  and  _118
REMARK   36  A    between atoms: _118  and  _119
REMARK   37  A    between atoms: _118  and  _121
REMARK   38  A    between atoms: _121  and  _122
REMARK   39  A    between atoms: _122  and  _123
REMARK   40  A    between atoms: _126  and  _128
REMARK   41  A    between atoms: _128  and  _129
REMARK   42  A    between atoms: _128  and  _131
REMARK   43  A    between atoms: _131  and  _132
REMARK   44  A    between atoms: _132  and  _133
REMARK   45  A    between atoms: _133  and  _134
REMARK   46  A    between atoms: _143  and  _145
REMARK   47  A    between atoms: _145  and  _146
REMARK   48  A    between atoms: _145  and  _148
REMARK   49  A    between atoms: _148  and  _149
REMARK   50  A    between atoms: _154  and  _155
REMARK   51  A    between atoms: _157  and  _159
REMARK   52  A    between atoms: _159  and  _160
REMARK   53  A    between atoms: _159  and  _162
REMARK   54  A    between atoms: _162  and  _163
REMARK   55  A    between atoms: _163  and  _164
REMARK   56  A    between atoms: _170  and  _171
REMARK   57  A    between atoms: _176  and  _178
REMARK   58  A    between atoms: _178  and  _179
REMARK   59  A    between atoms: _178  and  _181
REMARK   60  A    between atoms: _181  and  _182
REMARK   61  A    between atoms: _185  and  _187
REMARK   62  A    between atoms: _187  and  _188
REMARK   63  A    between atoms: _191  and  _193
REMARK   64  A    between atoms: _193  and  _194
REMARK   65  A    between atoms: _193  and  _196
REMARK   66  A    between atoms: _199  and  _201
REMARK   67  A    between atoms: _201  and  _202
REMARK   68  A    between atoms: _201  and  _204
REMARK   69  A    between atoms: _204  and  _205
REMARK   70  A    between atoms: _208  and  _210
REMARK   71  A    between atoms: _210  and  _211
REMARK   72  A    between atoms: _210  and  _213
REMARK   73  A    between atoms: _213  and  _214
REMARK   74  A    between atoms: _219  and  _221
REMARK   75  A    between atoms: _221  and  _222
REMARK   76  A    between atoms: _221  and  _224
REMARK   77  A    between atoms: _224  and  _225
REMARK   78  A    between atoms: _230  and  _232
REMARK   79  A    between atoms: _232  and  _233
REMARK   80  A    between atoms: _232  and  _235
REMARK   81  A    between atoms: _235  and  _236
REMARK   82  A    between atoms: _236  and  _237
REMARK   83  A    between atoms: _239  and  _241
REMARK   84  A    between atoms: _241  and  _242
REMARK   85  A    between atoms: _241  and  _244
REMARK   86  A    between atoms: _246  and  _248
REMARK   87  A    between atoms: _248  and  _249
REMARK   88  A    between atoms: _251  and  _253
REMARK   89  A    between atoms: _253  and  _254
REMARK   90  A    between atoms: _253  and  _256
REMARK   91  A    between atoms: _256  and  _257
REMARK   92  A    between atoms: _259  and  _261
REMARK   93  A    between atoms: _261  and  _262
REMARK   94  A    between atoms: _264  and  _266
REMARK   95  A    between atoms: _266  and  _267
REMARK   96  A    between atoms: _270  and  _272
REMARK   97  A    between atoms: _272  and  _273
REMARK   98  A    between atoms: _272  and  _275
REMARK   99  A    between atoms: _275  and  _276
REMARK  100  A    between atoms: _279  and  _281
REMARK  101  A    between atoms: _281  and  _282
REMARK  102  A    between atoms: _281  and  _284
REMARK  103  A    between atoms: _284  and  _285
REMARK  104  A    between atoms: _290  and  _291
REMARK  105  A    between atoms: _293  and  _295
REMARK  106  A    between atoms: _295  and  _296
REMARK  107  A    between atoms: _295  and  _298
REMARK  108  A    between atoms: _301  and  _303
REMARK  109  A    between atoms: _303  and  _304
REMARK  110  A    between atoms: _303  and  _306
REMARK  111  A    between atoms: _306  and  _307
REMARK  112  A    between atoms: _307  and  _308
REMARK  113  A    between atoms: _313  and  _315
REMARK  114  A    between atoms: _315  and  _316
REMARK  115  A    between atoms: _315  and  _318
REMARK  116  A    between atoms: _318  and  _319
REMARK  117  A    between atoms: _322  and  _324
REMARK  118  A    between atoms: _324  and  _325
REMARK  119  A    between atoms: _324  and  _327
REMARK  120  A    between atoms: _330  and  _332
REMARK  121  A    between atoms: _332  and  _333
REMARK  122  A    between atoms: _335  and  _337
REMARK  123  A    between atoms: _337  and  _338
REMARK  124  A    between atoms: _337  and  _340
REMARK  125  A    between atoms: _340  and  _341
REMARK  126  A    between atoms: _344  and  _346
REMARK  127  A    between atoms: _346  and  _347
REMARK  128  A    between atoms: _346  and  _349
REMARK  129  A    between atoms: _349  and  _350
REMARK  130  A    between atoms: _353  and  _355
REMARK  131  A    between atoms: _355  and  _356
REMARK  132  A    between atoms: _355  and  _358
REMARK  133  A    between atoms: _358  and  _359
REMARK  134  A    between atoms: _359  and  _360
REMARK  135  A    between atoms: _360  and  _361
REMARK  136  A    between atoms: _370  and  _372
REMARK  137  A    between atoms: _372  and  _373
REMARK  138  A    between atoms: _372  and  _375
REMARK  139  A    between atoms: _375  and  _376
REMARK  140  A    between atoms: _379  and  _381
REMARK  141  A    between atoms: _381  and  _382
REMARK  142  A    between atoms: _381  and  _384
REMARK  143  A    between atoms: _384  and  _385
REMARK  144  A    between atoms: _388  and  _390
REMARK  145  A    between atoms: _390  and  _391
REMARK  146  A    between atoms: _394  and  _396
REMARK  147  A    between atoms: _396  and  _397
REMARK  148  A    between atoms: _396  and  _399
REMARK  149  A    between atoms: _399  and  _400
REMARK  150  A    between atoms: _402  and  _404
REMARK  151  A    between atoms: _404  and  _405
REMARK  152  A    between atoms: _404  and  _407
REMARK  153  A    between atoms: _407  and  _408
REMARK  154  A    between atoms: _408  and  _409
REMARK  155  A    between atoms: _409  and  _410
REMARK  156  A    between atoms: _410  and  _411
REMARK  157  A    between atoms: _415  and  _417
REMARK  158  A    between atoms: _417  and  _418
REMARK  159  A    between atoms: _417  and  _420
REMARK  160  A    between atoms: _420  and  _421
REMARK  161  A    between atoms: _426  and  _428
REMARK  162  A    between atoms: _428  and  _429
REMARK  163  A    between atoms: _428  and  _431
REMARK  164  A    between atoms: _431  and  _432
REMARK  165  A    between atoms: _432  and  _433
REMARK  166  A    between atoms: _436  and  _438
REMARK  167  A    between atoms: _438  and  _439
REMARK  168  A    between atoms: _438  and  _441
REMARK  169  A    between atoms: _444  and  _446
REMARK  170  A    between atoms: _446  and  _447
REMARK  171  A    between atoms: _446  and  _449
REMARK  172  A    between atoms: _449  and  _450
REMARK  173  A    between atoms: _453  and  _455
REMARK  174  A    between atoms: _455  and  _456
REMARK  175  A    between atoms: _455  and  _458
REMARK  176  A    between atoms: _458  and  _459
REMARK  177  A    between atoms: _462  and  _464
REMARK  178  A    between atoms: _464  and  _465
REMARK  179  A    between atoms: _464  and  _467
REMARK  180  A    between atoms: _467  and  _468
REMARK  181  A    between atoms: _471  and  _473
REMARK  182  A    between atoms: _473  and  _474
REMARK  183  A    between atoms: _476  and  _478
REMARK  184  A    between atoms: _478  and  _479
REMARK  185  A    between atoms: _478  and  _481
REMARK  186  A    between atoms: _481  and  _482
REMARK  187  A    between atoms: _482  and  _483
REMARK  188  A    between atoms: _486  and  _488
REMARK  189  A    between atoms: _488  and  _489
REMARK  190  A    between atoms: _488  and  _491
REMARK  191  A    between atoms: _491  and  _492
REMARK  192  A    between atoms: _495  and  _497
REMARK  193  A    between atoms: _497  and  _498
REMARK  194  A    between atoms: _497  and  _500
REMARK  195  A    between atoms: _500  and  _501
REMARK  196  A    between atoms: _507  and  _509
REMARK  197  A    between atoms: _509  and  _510
REMARK  198  A    between atoms: _509  and  _512
REMARK  199  A    between atoms: _512  and  _513
REMARK  200  A    between atoms: _518  and  _520
REMARK  201  A    between atoms: _520  and  _521
REMARK  202  A    between atoms: _520  and  _523
REMARK  203  A    between atoms: _523  and  _524
REMARK  204  A    between atoms: _529  and  _531
REMARK  205  A    between atoms: _531  and  _532
REMARK  206  A    between atoms: _531  and  _534
REMARK  207  A    between atoms: _534  and  _535
REMARK  208  A    between atoms: _538  and  _540
REMARK  209  A    between atoms: _540  and  _541
REMARK  210  A    between atoms: _540  and  _543
REMARK  211  A    between atoms: _543  and  _544
REMARK  212  A    between atoms: _549  and  _551
REMARK  213  A    between atoms: _551  and  _552
REMARK  214  A    between atoms: _551  and  _554
REMARK  215  A    between atoms: _554  and  _555
REMARK  216  A    between atoms: _555  and  _556
REMARK  217  A    between atoms: _556  and  _557
REMARK  218  A    between atoms: _566  and  _568
REMARK  219  A    between atoms: _568  and  _569
REMARK  220  A    between atoms: _571  and  _573
REMARK  221  A    between atoms: _573  and  _574
REMARK  222  A    between atoms: _573  and  _576
REMARK  223  A    between atoms: _576  and  _577
REMARK  224  A    between atoms: _582  and  _584
REMARK  225  A    between atoms: _584  and  _585
REMARK  226  A    between atoms: _587  and  _589
REMARK  227  A    between atoms: _589  and  _590
REMARK  228  A    between atoms: _593  and  _595
REMARK  229  A    between atoms: _595  and  _596
REMARK  230  A    between atoms: _598  and  _600
REMARK  231  A    between atoms: _600  and  _601
REMARK  232  A    between atoms: _600  and  _603
REMARK  233  A    between atoms: _603  and  _604
REMARK  234  A    between atoms: _604  and  _605
REMARK  235  A    between atoms: _605  and  _606
REMARK  236  A    between atoms: _615  and  _617
REMARK  237  A    between atoms: _617  and  _618
REMARK  238  A    between atoms: _617  and  _620
REMARK  239  A    between atoms: _620  and  _621
REMARK  240  A    between atoms: _624  and  _626
REMARK  241  A    between atoms: _626  and  _627
REMARK  242  A    between atoms: _626  and  _629
REMARK  243  A    between atoms: _629  and  _630
REMARK                            x       y       z     vdW  Elec       q    Type
REMARK                         _______ _______ _______ _____ _____    ______ ____
ROOT
ATOM      1  O   HOH     1     -10.145  44.278  25.685  0.00  0.00    +0.000 OA
ENDROOT
TORSDOF 0
REMARK  Name = ../refined-set-2016/1ppi/1ppi_pocket.pdb
REMARK  243 active torsions:
REMARK  status: ('A' for Active; 'I' for Inactive)
REMARK    1  A    between atoms: _1  and  _3
REMARK    2  A    between atoms: _3  and  _4
REMARK    3  A    between atoms: _3  and  _6
REMARK    4  A    between atoms: _6  and  _7
REMARK    5  A    between atoms: _12  and  _14
REMARK    6  A    between atoms: _14  and  _15
REMARK    7  A    between atoms: _14  and  _17
REMARK    8  A    between atoms: _17  and  _18
REMARK    9  A    between atoms: _24  and  _26
REMARK   10  A    between atoms: _26  and  _27
REMARK   11  A    between atoms: _26  and  _29
REMARK   12  A    between atoms: _29  and  _30
REMARK   13  A    between atoms: _30  and  _31
REMARK   14  A    between atoms: _37  and  _38
REMARK   15  A    between atoms: _43  and  _45
REMARK   16  A    between atoms: _45  and  _46
REMARK   17  A    between atoms: _45  and  _48
REMARK   18  A    between atoms: _48  and  _49
REMARK   19  A    between atoms: _54  and  _56
REMARK   20  A    between atoms: _56  and  _57
REMARK   21  A    between atoms: _56  and  _59
REMARK   22  A    between atoms: _62  and  _64
REMARK   23  A    between atoms: _64  and  _65
REMARK   24  A    between atoms: _64  and  _67
REMARK   25  A    between atoms: _71  and  _72
REMARK   26  A    between atoms: _78  and  _79
REMARK   27  A    between atoms: _84  and  _86
REMARK   28  A    between atoms: _86  and  _87
REMARK   29  A    between atoms: _86  and  _89
REMARK   30  A    between atoms: _89  and  _90
REMARK   31  A    between atoms: _100  and  _102
REMARK   32  A    between atoms: _102  and  _103
REMARK   33  A    between atoms: _102  and  _105
REMARK   34  A    between atoms: _105  and  _106
REMARK   35  A    between atoms: _116  and  _118
REMARK   36  A    between atoms: _118  and  _119
REMARK   37  A    between atoms: _118  and  _121
REMARK   38  A    between atoms: _121  and  _122
REMARK   39  A    between atoms: _122  and  _123
REMARK   40  A    between atoms: _126  and  _128
REMARK   41  A    between atoms: _128  and  _129
REMARK   42  A    between atoms: _128  and  _131
REMARK   43  A    between atoms: _131  and  _132
REMARK   44  A    between atoms: _132  and  _133
REMARK   45  A    between atoms: _133  and  _134
REMARK   46  A    between atoms: _143  and  _145
REMARK   47  A    between atoms: _145  and  _146
REMARK   48  A    between atoms: _145  and  _148
REMARK   49  A    between atoms: _148  and  _149
REMARK   50  A    between atoms: _154  and  _155
REMARK   51  A    between atoms: _157  and  _159
REMARK   52  A    between atoms: _159  and  _160
REMARK   53  A    between atoms: _159  and  _162
REMARK   54  A    between atoms: _162  and  _163
REMARK   55  A    between atoms: _163  and  _164
REMARK   56  A    between atoms: _170  and  _171
REMARK   57  A    between atoms: _176  and  _178
REMARK   58  A    between atoms: _178  and  _179
REMARK   59  A    between atoms: _178  and  _181
REMARK   60  A    between atoms: _181  and  _182
REMARK   61  A    between atoms: _185  and  _187
REMARK   62  A    between atoms: _187  and  _188
REMARK   63  A    between atoms: _191  and  _193
REMARK   64  A    between atoms: _193  and  _194
REMARK   65  A    between atoms: _193  and  _196
REMARK   66  A    between atoms: _199  and  _201
REMARK   67  A    between atoms: _201  and  _202
REMARK   68  A    between atoms: _201  and  _204
REMARK   69  A    between atoms: _204  and  _205
REMARK   70  A    between atoms: _208  and  _210
REMARK   71  A    between atoms: _210  and  _211
REMARK   72  A    between atoms: _210  and  _213
REMARK   73  A    between atoms: _213  and  _214
REMARK   74  A    between atoms: _219  and  _221
REMARK   75  A    between atoms: _221  and  _222
REMARK   76  A    between atoms: _221  and  _224
REMARK   77  A    between atoms: _224  and  _225
REMARK   78  A    between atoms: _230  and  _232
REMARK   79  A    between atoms: _232  and  _233
REMARK   80  A    between atoms: _232  and  _235
REMARK   81  A    between atoms: _235  and  _236
REMARK   82  A    between atoms: _236  and  _237
REMARK   83  A    between atoms: _239  and  _241
REMARK   84  A    between atoms: _241  and  _242
REMARK   85  A    between atoms: _241  and  _244
REMARK   86  A    between atoms: _246  and  _248
REMARK   87  A    between atoms: _248  and  _249
REMARK   88  A    between atoms: _251  and  _253
REMARK   89  A    between atoms: _253  and  _254
REMARK   90  A    between atoms: _253  and  _256
REMARK   91  A    between atoms: _256  and  _257
REMARK   92  A    between atoms: _259  and  _261
REMARK   93  A    between atoms: _261  and  _262
REMARK   94  A    between atoms: _264  and  _266
REMARK   95  A    between atoms: _266  and  _267
REMARK   96  A    between atoms: _270  and  _272
REMARK   97  A    between atoms: _272  and  _273
REMARK   98  A    between atoms: _272  and  _275
REMARK   99  A    between atoms: _275  and  _276
REMARK  100  A    between atoms: _279  and  _281
REMARK  101  A    between atoms: _281  and  _282
REMARK  102  A    between atoms: _281  and  _284
REMARK  103  A    between atoms: _284  and  _285
REMARK  104  A    between atoms: _290  and  _291
REMARK  105  A    between atoms: _293  and  _295
REMARK  106  A    between atoms: _295  and  _296
REMARK  107  A    between atoms: _295  and  _298
REMARK  108  A    between atoms: _301  and  _303
REMARK  109  A    between atoms: _303  and  _304
REMARK  110  A    between atoms: _303  and  _306
REMARK  111  A    between atoms: _306  and  _307
REMARK  112  A    between atoms: _307  and  _308
REMARK  113  A    between atoms: _313  and  _315
REMARK  114  A    between atoms: _315  and  _316
REMARK  115  A    between atoms: _315  and  _318
REMARK  116  A    between atoms: _318  and  _319
REMARK  117  A    between atoms: _322  and  _324
REMARK  118  A    between atoms: _324  and  _325
REMARK  119  A    between atoms: _324  and  _327
REMARK  120  A    between atoms: _330  and  _332
REMARK  121  A    between atoms: _332  and  _333
REMARK  122  A    between atoms: _335  and  _337
REMARK  123  A    between atoms: _337  and  _338
REMARK  124  A    between atoms: _337  and  _340
REMARK  125  A    between atoms: _340  and  _341
REMARK  126  A    between atoms: _344  and  _346
REMARK  127  A    between atoms: _346  and  _347
REMARK  128  A    between atoms: _346  and  _349
REMARK  129  A    between atoms: _349  and  _350
REMARK  130  A    between atoms: _353  and  _355
REMARK  131  A    between atoms: _355  and  _356
REMARK  132  A    between atoms: _355  and  _358
REMARK  133  A    between atoms: _358  and  _359
REMARK  134  A    between atoms: _359  and  _360
REMARK  135  A    between atoms: _360  and  _361
REMARK  136  A    between atoms: _370  and  _372
REMARK  137  A    between atoms: _372  and  _373
REMARK  138  A    between atoms: _372  and  _375
REMARK  139  A    between atoms: _375  and  _376
REMARK  140  A    between atoms: _379  and  _381
REMARK  141  A    between atoms: _381  and  _382
REMARK  142  A    between atoms: _381  and  _384
REMARK  143  A    between atoms: _384  and  _385
REMARK  144  A    between atoms: _388  and  _390
REMARK  145  A    between atoms: _390  and  _391
REMARK  146  A    between atoms: _394  and  _396
REMARK  147  A    between atoms: _396  and  _397
REMARK  148  A    between atoms: _396  and  _399
REMARK  149  A    between atoms: _399  and  _400
REMARK  150  A    between atoms: _402  and  _404
REMARK  151  A    between atoms: _404  and  _405
REMARK  152  A    between atoms: _404  and  _407
REMARK  153  A    between atoms: _407  and  _408
REMARK  154  A    between atoms: _408  and  _409
REMARK  155  A    between atoms: _409  and  _410
REMARK  156  A    between atoms: _410  and  _411
REMARK  157  A    between atoms: _415  and  _417
REMARK  158  A    between atoms: _417  and  _418
REMARK  159  A    between atoms: _417  and  _420
REMARK  160  A    between atoms: _420  and  _421
REMARK  161  A    between atoms: _426  and  _428
REMARK  162  A    between atoms: _428  and  _429
REMARK  163  A    between atoms: _428  and  _431
REMARK  164  A    between atoms: _431  and  _432
REMARK  165  A    between atoms: _432  and  _433
REMARK  166  A    between atoms: _436  and  _438
REMARK  167  A    between atoms: _438  and  _439
REMARK  168  A    between atoms: _438  and  _441
REMARK  169  A    between atoms: _444  and  _446
REMARK  170  A    between atoms: _446  and  _447
REMARK  171  A    between atoms: _446  and  _449
REMARK  172  A    between atoms: _449  and  _450
REMARK  173  A    between atoms: _453  and  _455
REMARK  174  A    between atoms: _455  and  _456
REMARK  175  A    between atoms: _455  and  _458
REMARK  176  A    between atoms: _458  and  _459
REMARK  177  A    between atoms: _462  and  _464
REMARK  178  A    between atoms: _464  and  _465
REMARK  179  A    between atoms: _464  and  _467
REMARK  180  A    between atoms: _467  and  _468
REMARK  181  A    between atoms: _471  and  _473
REMARK  182  A    between atoms: _473  and  _474
REMARK  183  A    between atoms: _476  and  _478
REMARK  184  A    between atoms: _478  and  _479
REMARK  185  A    between atoms: _478  and  _481
REMARK  186  A    between atoms: _481  and  _482
REMARK  187  A    between atoms: _482  and  _483
REMARK  188  A    between atoms: _486  and  _488
REMARK  189  A    between atoms: _488  and  _489
REMARK  190  A    between atoms: _488  and  _491
REMARK  191  A    between atoms: _491  and  _492
REMARK  192  A    between atoms: _495  and  _497
REMARK  193  A    between atoms: _497  and  _498
REMARK  194  A    between atoms: _497  and  _500
REMARK  195  A    between atoms: _500  and  _501
REMARK  196  A    between atoms: _507  and  _509
REMARK  197  A    between atoms: _509  and  _510
REMARK  198  A    between atoms: _509  and  _512
REMARK  199  A    between atoms: _512  and  _513
REMARK  200  A    between atoms: _518  and  _520
REMARK  201  A    between atoms: _520  and  _521
REMARK  202  A    between atoms: _520  and  _523
REMARK  203  A    between atoms: _523  and  _524
REMARK  204  A    between atoms: _529  and  _531
REMARK  205  A    between atoms: _531  and  _532
REMARK  206  A    between atoms: _531  and  _534
REMARK  207  A    between atoms: _534  and  _535
REMARK  208  A    between atoms: _538  and  _540
REMARK  209  A    between atoms: _540  and  _541
REMARK  210  A    between atoms: _540  and  _543
REMARK  211  A    between atoms: _543  and  _544
REMARK  212  A    between atoms: _549  and  _551
REMARK  213  A    between atoms: _551  and  _552
REMARK  214  A    between atoms: _551  and  _554
REMARK  215  A    between atoms: _554  and  _555
REMARK  216  A    between atoms: _555  and  _556
REMARK  217  A    between atoms: _556  and  _557
REMARK  218  A    between atoms: _566  and  _568
REMARK  219  A    between atoms: _568  and  _569
REMARK  220  A    between atoms: _571  and  _573
REMARK  221  A    between atoms: _573  and  _574
REMARK  222  A    between atoms: _573  and  _576
REMARK  223  A    between atoms: _576  and  _577
REMARK  224  A    between atoms: _582  and  _584
REMARK  225  A    between atoms: _584  and  _585
REMARK  226  A    between atoms: _587  and  _589
REMARK  227  A    between atoms: _589  and  _590
REMARK  228  A    between atoms: _593  and  _595
REMARK  229  A    between atoms: _595  and  _596
REMARK  230  A    between atoms: _598  and  _600
REMARK  231  A    between atoms: _600  and  _601
REMARK  232  A    between atoms: _600  and  _603
REMARK  233  A    between atoms: _603  and  _604
REMARK  234  A    between atoms: _604  and  _605
REMARK  235  A    between atoms: _605  and  _606
REMARK  236  A    between atoms: _615  and  _617
REMARK  237  A    between atoms: _617  and  _618
REMARK  238  A    between atoms: _617  and  _620
REMARK  239  A    between atoms: _620  and  _621
REMARK  240  A    between atoms: _624  and  _626
REMARK  241  A    between atoms: _626  and  _627
REMARK  242  A    between atoms: _626  and  _629
REMARK  243  A    between atoms: _629  and  _630
REMARK                            x       y       z     vdW  Elec       q    Type
REMARK                         _______ _______ _______ _____ _____    ______ ____
ROOT
ATOM      1  O   HOH     1       2.023  37.053   9.377  0.00  0.00    +0.000 OA
ENDROOT
TORSDOF 0
REMARK  Name = ../refined-set-2016/1ppi/1ppi_pocket.pdb
REMARK  243 active torsions:
REMARK  status: ('A' for Active; 'I' for Inactive)
REMARK    1  A    between atoms: _1  and  _3
REMARK    2  A    between atoms: _3  and  _4
REMARK    3  A    between atoms: _3  and  _6
REMARK    4  A    between atoms: _6  and  _7
REMARK    5  A    between atoms: _12  and  _14
REMARK    6  A    between atoms: _14  and  _15
REMARK    7  A    between atoms: _14  and  _17
REMARK    8  A    between atoms: _17  and  _18
REMARK    9  A    between atoms: _24  and  _26
REMARK   10  A    between atoms: _26  and  _27
REMARK   11  A    between atoms: _26  and  _29
REMARK   12  A    between atoms: _29  and  _30
REMARK   13  A    between atoms: _30  and  _31
REMARK   14  A    between atoms: _37  and  _38
REMARK   15  A    between atoms: _43  and  _45
REMARK   16  A    between atoms: _45  and  _46
REMARK   17  A    between atoms: _45  and  _48
REMARK   18  A    between atoms: _48  and  _49
REMARK   19  A    between atoms: _54  and  _56
REMARK   20  A    between atoms: _56  and  _57
REMARK   21  A    between atoms: _56  and  _59
REMARK   22  A    between atoms: _62  and  _64
REMARK   23  A    between atoms: _64  and  _65
REMARK   24  A    between atoms: _64  and  _67
REMARK   25  A    between atoms: _71  and  _72
REMARK   26  A    between atoms: _78  and  _79
REMARK   27  A    between atoms: _84  and  _86
REMARK   28  A    between atoms: _86  and  _87
REMARK   29  A    between atoms: _86  and  _89
REMARK   30  A    between atoms: _89  and  _90
REMARK   31  A    between atoms: _100  and  _102
REMARK   32  A    between atoms: _102  and  _103
REMARK   33  A    between atoms: _102  and  _105
REMARK   34  A    between atoms: _105  and  _106
REMARK   35  A    between atoms: _116  and  _118
REMARK   36  A    between atoms: _118  and  _119
REMARK   37  A    between atoms: _118  and  _121
REMARK   38  A    between atoms: _121  and  _122
REMARK   39  A    between atoms: _122  and  _123
REMARK   40  A    between atoms: _126  and  _128
REMARK   41  A    between atoms: _128  and  _129
REMARK   42  A    between atoms: _128  and  _131
REMARK   43  A    between atoms: _131  and  _132
REMARK   44  A    between atoms: _132  and  _133
REMARK   45  A    between atoms: _133  and  _134
REMARK   46  A    between atoms: _143  and  _145
REMARK   47  A    between atoms: _145  and  _146
REMARK   48  A    between atoms: _145  and  _148
REMARK   49  A    between atoms: _148  and  _149
REMARK   50  A    between atoms: _154  and  _155
REMARK   51  A    between atoms: _157  and  _159
REMARK   52  A    between atoms: _159  and  _160
REMARK   53  A    between atoms: _159  and  _162
REMARK   54  A    between atoms: _162  and  _163
REMARK   55  A    between atoms: _163  and  _164
REMARK   56  A    between atoms: _170  and  _171
REMARK   57  A    between atoms: _176  and  _178
REMARK   58  A    between atoms: _178  and  _179
REMARK   59  A    between atoms: _178  and  _181
REMARK   60  A    between atoms: _181  and  _182
REMARK   61  A    between atoms: _185  and  _187
REMARK   62  A    between atoms: _187  and  _188
REMARK   63  A    between atoms: _191  and  _193
REMARK   64  A    between atoms: _193  and  _194
REMARK   65  A    between atoms: _193  and  _196
REMARK   66  A    between atoms: _199  and  _201
REMARK   67  A    between atoms: _201  and  _202
REMARK   68  A    between atoms: _201  and  _204
REMARK   69  A    between atoms: _204  and  _205
REMARK   70  A    between atoms: _208  and  _210
REMARK   71  A    between atoms: _210  and  _211
REMARK   72  A    between atoms: _210  and  _213
REMARK   73  A    between atoms: _213  and  _214
REMARK   74  A    between atoms: _219  and  _221
REMARK   75  A    between atoms: _221  and  _222
REMARK   76  A    between atoms: _221  and  _224
REMARK   77  A    between atoms: _224  and  _225
REMARK   78  A    between atoms: _230  and  _232
REMARK   79  A    between atoms: _232  and  _233
REMARK   80  A    between atoms: _232  and  _235
REMARK   81  A    between atoms: _235  and  _236
REMARK   82  A    between atoms: _236  and  _237
REMARK   83  A    between atoms: _239  and  _241
REMARK   84  A    between atoms: _241  and  _242
REMARK   85  A    between atoms: _241  and  _244
REMARK   86  A    between atoms: _246  and  _248
REMARK   87  A    between atoms: _248  and  _249
REMARK   88  A    between atoms: _251  and  _253
REMARK   89  A    between atoms: _253  and  _254
REMARK   90  A    between atoms: _253  and  _256
REMARK   91  A    between atoms: _256  and  _257
REMARK   92  A    between atoms: _259  and  _261
REMARK   93  A    between atoms: _261  and  _262
REMARK   94  A    between atoms: _264  and  _266
REMARK   95  A    between atoms: _266  and  _267
REMARK   96  A    between atoms: _270  and  _272
REMARK   97  A    between atoms: _272  and  _273
REMARK   98  A    between atoms: _272  and  _275
REMARK   99  A    between atoms: _275  and  _276
REMARK  100  A    between atoms: _279  and  _281
REMARK  101  A    between atoms: _281  and  _282
REMARK  102  A    between atoms: _281  and  _284
REMARK  103  A    between atoms: _284  and  _285
REMARK  104  A    between atoms: _290  and  _291
REMARK  105  A    between atoms: _293  and  _295
REMARK  106  A    between atoms: _295  and  _296
REMARK  107  A    between atoms: _295  and  _298
REMARK  108  A    between atoms: _301  and  _303
REMARK  109  A    between atoms: _303  and  _304
REMARK  110  A    between atoms: _303  and  _306
REMARK  111  A    between atoms: _306  and  _307
REMARK  112  A    between atoms: _307  and  _308
REMARK  113  A    between atoms: _313  and  _315
REMARK  114  A    between atoms: _315  and  _316
REMARK  115  A    between atoms: _315  and  _318
REMARK  116  A    between atoms: _318  and  _319
REMARK  117  A    between atoms: _322  and  _324
REMARK  118  A    between atoms: _324  and  _325
REMARK  119  A    between atoms: _324  and  _327
REMARK  120  A    between atoms: _330  and  _332
REMARK  121  A    between atoms: _332  and  _333
REMARK  122  A    between atoms: _335  and  _337
REMARK  123  A    between atoms: _337  and  _338
REMARK  124  A    between atoms: _337  and  _340
REMARK  125  A    between atoms: _340  and  _341
REMARK  126  A    between atoms: _344  and  _346
REMARK  127  A    between atoms: _346  and  _347
REMARK  128  A    between atoms: _346  and  _349
REMARK  129  A    between atoms: _349  and  _350
REMARK  130  A    between atoms: _353  and  _355
REMARK  131  A    between atoms: _355  and  _356
REMARK  132  A    between atoms: _355  and  _358
REMARK  133  A    between atoms: _358  and  _359
REMARK  134  A    between atoms: _359  and  _360
REMARK  135  A    between atoms: _360  and  _361
REMARK  136  A    between atoms: _370  and  _372
REMARK  137  A    between atoms: _372  and  _373
REMARK  138  A    between atoms: _372  and  _375
REMARK  139  A    between atoms: _375  and  _376
REMARK  140  A    between atoms: _379  and  _381
REMARK  141  A    between atoms: _381  and  _382
REMARK  142  A    between atoms: _381  and  _384
REMARK  143  A    between atoms: _384  and  _385
REMARK  144  A    between atoms: _388  and  _390
REMARK  145  A    between atoms: _390  and  _391
REMARK  146  A    between atoms: _394  and  _396
REMARK  147  A    between atoms: _396  and  _397
REMARK  148  A    between atoms: _396  and  _399
REMARK  149  A    between atoms: _399  and  _400
REMARK  150  A    between atoms: _402  and  _404
REMARK  151  A    between atoms: _404  and  _405
REMARK  152  A    between atoms: _404  and  _407
REMARK  153  A    between atoms: _407  and  _408
REMARK  154  A    between atoms: _408  and  _409
REMARK  155  A    between atoms: _409  and  _410
REMARK  156  A    between atoms: _410  and  _411
REMARK  157  A    between atoms: _415  and  _417
REMARK  158  A    between atoms: _417  and  _418
REMARK  159  A    between atoms: _417  and  _420
REMARK  160  A    between atoms: _420  and  _421
REMARK  161  A    between atoms: _426  and  _428
REMARK  162  A    between atoms: _428  and  _429
REMARK  163  A    between atoms: _428  and  _431
REMARK  164  A    between atoms: _431  and  _432
REMARK  165  A    between atoms: _432  and  _433
REMARK  166  A    between atoms: _436  and  _438
REMARK  167  A    between atoms: _438  and  _439
REMARK  168  A    between atoms: _438  and  _441
REMARK  169  A    between atoms: _444  and  _446
REMARK  170  A    between atoms: _446  and  _447
REMARK  171  A    between atoms: _446  and  _449
REMARK  172  A    between atoms: _449  and  _450
REMARK  173  A    between atoms: _453  and  _455
REMARK  174  A    between atoms: _455  and  _456
REMARK  175  A    between atoms: _455  and  _458
REMARK  176  A    between atoms: _458  and  _459
REMARK  177  A    between atoms: _462  and  _464
REMARK  178  A    between atoms: _464  and  _465
REMARK  179  A    between atoms: _464  and  _467
REMARK  180  A    between atoms: _467  and  _468
REMARK  181  A    between atoms: _471  and  _473
REMARK  182  A    between atoms: _473  and  _474
REMARK  183  A    between atoms: _476  and  _478
REMARK  184  A    between atoms: _478  and  _479
REMARK  185  A    between atoms: _478  and  _481
REMARK  186  A    between atoms: _481  and  _482
REMARK  187  A    between atoms: _482  and  _483
REMARK  188  A    between atoms: _486  and  _488
REMARK  189  A    between atoms: _488  and  _489
REMARK  190  A    between atoms: _488  and  _491
REMARK  191  A    between atoms: _491  and  _492
REMARK  192  A    between atoms: _495  and  _497
REMARK  193  A    between atoms: _497  and  _498
REMARK  194  A    between atoms: _497  and  _500
REMARK  195  A    between atoms: _500  and  _501
REMARK  196  A    between atoms: _507  and  _509
REMARK  197  A    between atoms: _509  and  _510
REMARK  198  A    between atoms: _509  and  _512
REMARK  199  A    between atoms: _512  and  _513
REMARK  200  A    between atoms: _518  and  _520
REMARK  201  A    between atoms: _520  and  _521
REMARK  202  A    between atoms: _520  and  _523
REMARK  203  A    between atoms: _523  and  _524
REMARK  204  A    between atoms: _529  and  _531
REMARK  205  A    between atoms: _531  and  _532
REMARK  206  A    between atoms: _531  and  _534
REMARK  207  A    between atoms: _534  and  _535
REMARK  208  A    between atoms: _538  and  _540
REMARK  209  A    between atoms: _540  and  _541
REMARK  210  A    between atoms: _540  and  _543
REMARK  211  A    between atoms: _543  and  _544
REMARK  212  A    between atoms: _549  and  _551
REMARK  213  A    between atoms: _551  and  _552
REMARK  214  A    between atoms: _551  and  _554
REMARK  215  A    between atoms: _554  and  _555
REMARK  216  A    between atoms: _555  and  _556
REMARK  217  A    between atoms: _556  and  _557
REMARK  218  A    between atoms: _566  and  _568
REMARK  219  A    between atoms: _568  and  _569
REMARK  220  A    between atoms: _571  and  _573
REMARK  221  A    between atoms: _573  and  _574
REMARK  222  A    between atoms: _573  and  _576
REMARK  223  A    between atoms: _576  and  _577
REMARK  224  A    between atoms: _582  and  _584
REMARK  225  A    between atoms: _584  and  _585
REMARK  226  A    between atoms: _587  and  _589
REMARK  227  A    between atoms: _589  and  _590
REMARK  228  A    between atoms: _593  and  _595
REMARK  229  A    between atoms: _595  and  _596
REMARK  230  A    between atoms: _598  and  _600
REMARK  231  A    between atoms: _600  and  _601
REMARK  232  A    between atoms: _600  and  _603
REMARK  233  A    between atoms: _603  and  _604
REMARK  234  A    between atoms: _604  and  _605
REMARK  235  A    between atoms: _605  and  _606
REMARK  236  A    between atoms: _615  and  _617
REMARK  237  A    between atoms: _617  and  _618
REMARK  238  A    between atoms: _617  and  _620
REMARK  239  A    between atoms: _620  and  _621
REMARK  240  A    between atoms: _624  and  _626
REMARK  241  A    between atoms: _626  and  _627
REMARK  242  A    between atoms: _626  and  _629
REMARK  243  A    between atoms: _629  and  _630
REMARK                            x       y       z     vdW  Elec       q    Type
REMARK                         _______ _______ _______ _____ _____    ______ ____
ROOT
ATOM      1  O   HOH     1     -11.810  47.396  14.376  0.00  0.00    +0.000 OA
ENDROOT
TORSDOF 0
REMARK  Name = ../refined-set-2016/1ppi/1ppi_pocket.pdb
REMARK  243 active torsions:
REMARK  status: ('A' for Active; 'I' for Inactive)
REMARK    1  A    between atoms: _1  and  _3
REMARK    2  A    between atoms: _3  and  _4
REMARK    3  A    between atoms: _3  and  _6
REMARK    4  A    between atoms: _6  and  _7
REMARK    5  A    between atoms: _12  and  _14
REMARK    6  A    between atoms: _14  and  _15
REMARK    7  A    between atoms: _14  and  _17
REMARK    8  A    between atoms: _17  and  _18
REMARK    9  A    between atoms: _24  and  _26
REMARK   10  A    between atoms: _26  and  _27
REMARK   11  A    between atoms: _26  and  _29
REMARK   12  A    between atoms: _29  and  _30
REMARK   13  A    between atoms: _30  and  _31
REMARK   14  A    between atoms: _37  and  _38
REMARK   15  A    between atoms: _43  and  _45
REMARK   16  A    between atoms: _45  and  _46
REMARK   17  A    between atoms: _45  and  _48
REMARK   18  A    between atoms: _48  and  _49
REMARK   19  A    between atoms: _54  and  _56
REMARK   20  A    between atoms: _56  and  _57
REMARK   21  A    between atoms: _56  and  _59
REMARK   22  A    between atoms: _62  and  _64
REMARK   23  A    between atoms: _64  and  _65
REMARK   24  A    between atoms: _64  and  _67
REMARK   25  A    between atoms: _71  and  _72
REMARK   26  A    between atoms: _78  and  _79
REMARK   27  A    between atoms: _84  and  _86
REMARK   28  A    between atoms: _86  and  _87
REMARK   29  A    between atoms: _86  and  _89
REMARK   30  A    between atoms: _89  and  _90
REMARK   31  A    between atoms: _100  and  _102
REMARK   32  A    between atoms: _102  and  _103
REMARK   33  A    between atoms: _102  and  _105
REMARK   34  A    between atoms: _105  and  _106
REMARK   35  A    between atoms: _116  and  _118
REMARK   36  A    between atoms: _118  and  _119
REMARK   37  A    between atoms: _118  and  _121
REMARK   38  A    between atoms: _121  and  _122
REMARK   39  A    between atoms: _122  and  _123
REMARK   40  A    between atoms: _126  and  _128
REMARK   41  A    between atoms: _128  and  _129
REMARK   42  A    between atoms: _128  and  _131
REMARK   43  A    between atoms: _131  and  _132
REMARK   44  A    between atoms: _132  and  _133
REMARK   45  A    between atoms: _133  and  _134
REMARK   46  A    between atoms: _143  and  _145
REMARK   47  A    between atoms: _145  and  _146
REMARK   48  A    between atoms: _145  and  _148
REMARK   49  A    between atoms: _148  and  _149
REMARK   50  A    between atoms: _154  and  _155
REMARK   51  A    between atoms: _157  and  _159
REMARK   52  A    between atoms: _159  and  _160
REMARK   53  A    between atoms: _159  and  _162
REMARK   54  A    between atoms: _162  and  _163
REMARK   55  A    between atoms: _163  and  _164
REMARK   56  A    between atoms: _170  and  _171
REMARK   57  A    between atoms: _176  and  _178
REMARK   58  A    between atoms: _178  and  _179
REMARK   59  A    between atoms: _178  and  _181
REMARK   60  A    between atoms: _181  and  _182
REMARK   61  A    between atoms: _185  and  _187
REMARK   62  A    between atoms: _187  and  _188
REMARK   63  A    between atoms: _191  and  _193
REMARK   64  A    between atoms: _193  and  _194
REMARK   65  A    between atoms: _193  and  _196
REMARK   66  A    between atoms: _199  and  _201
REMARK   67  A    between atoms: _201  and  _202
REMARK   68  A    between atoms: _201  and  _204
REMARK   69  A    between atoms: _204  and  _205
REMARK   70  A    between atoms: _208  and  _210
REMARK   71  A    between atoms: _210  and  _211
REMARK   72  A    between atoms: _210  and  _213
REMARK   73  A    between atoms: _213  and  _214
REMARK   74  A    between atoms: _219  and  _221
REMARK   75  A    between atoms: _221  and  _222
REMARK   76  A    between atoms: _221  and  _224
REMARK   77  A    between atoms: _224  and  _225
REMARK   78  A    between atoms: _230  and  _232
REMARK   79  A    between atoms: _232  and  _233
REMARK   80  A    between atoms: _232  and  _235
REMARK   81  A    between atoms: _235  and  _236
REMARK   82  A    between atoms: _236  and  _237
REMARK   83  A    between atoms: _239  and  _241
REMARK   84  A    between atoms: _241  and  _242
REMARK   85  A    between atoms: _241  and  _244
REMARK   86  A    between atoms: _246  and  _248
REMARK   87  A    between atoms: _248  and  _249
REMARK   88  A    between atoms: _251  and  _253
REMARK   89  A    between atoms: _253  and  _254
REMARK   90  A    between atoms: _253  and  _256
REMARK   91  A    between atoms: _256  and  _257
REMARK   92  A    between atoms: _259  and  _261
REMARK   93  A    between atoms: _261  and  _262
REMARK   94  A    between atoms: _264  and  _266
REMARK   95  A    between atoms: _266  and  _267
REMARK   96  A    between atoms: _270  and  _272
REMARK   97  A    between atoms: _272  and  _273
REMARK   98  A    between atoms: _272  and  _275
REMARK   99  A    between atoms: _275  and  _276
REMARK  100  A    between atoms: _279  and  _281
REMARK  101  A    between atoms: _281  and  _282
REMARK  102  A    between atoms: _281  and  _284
REMARK  103  A    between atoms: _284  and  _285
REMARK  104  A    between atoms: _290  and  _291
REMARK  105  A    between atoms: _293  and  _295
REMARK  106  A    between atoms: _295  and  _296
REMARK  107  A    between atoms: _295  and  _298
REMARK  108  A    between atoms: _301  and  _303
REMARK  109  A    between atoms: _303  and  _304
REMARK  110  A    between atoms: _303  and  _306
REMARK  111  A    between atoms: _306  and  _307
REMARK  112  A    between atoms: _307  and  _308
REMARK  113  A    between atoms: _313  and  _315
REMARK  114  A    between atoms: _315  and  _316
REMARK  115  A    between atoms: _315  and  _318
REMARK  116  A    between atoms: _318  and  _319
REMARK  117  A    between atoms: _322  and  _324
REMARK  118  A    between atoms: _324  and  _325
REMARK  119  A    between atoms: _324  and  _327
REMARK  120  A    between atoms: _330  and  _332
REMARK  121  A    between atoms: _332  and  _333
REMARK  122  A    between atoms: _335  and  _337
REMARK  123  A    between atoms: _337  and  _338
REMARK  124  A    between atoms: _337  and  _340
REMARK  125  A    between atoms: _340  and  _341
REMARK  126  A    between atoms: _344  and  _346
REMARK  127  A    between atoms: _346  and  _347
REMARK  128  A    between atoms: _346  and  _349
REMARK  129  A    between atoms: _349  and  _350
REMARK  130  A    between atoms: _353  and  _355
REMARK  131  A    between atoms: _355  and  _356
REMARK  132  A    between atoms: _355  and  _358
REMARK  133  A    between atoms: _358  and  _359
REMARK  134  A    between atoms: _359  and  _360
REMARK  135  A    between atoms: _360  and  _361
REMARK  136  A    between atoms: _370  and  _372
REMARK  137  A    between atoms: _372  and  _373
REMARK  138  A    between atoms: _372  and  _375
REMARK  139  A    between atoms: _375  and  _376
REMARK  140  A    between atoms: _379  and  _381
REMARK  141  A    between atoms: _381  and  _382
REMARK  142  A    between atoms: _381  and  _384
REMARK  143  A    between atoms: _384  and  _385
REMARK  144  A    between atoms: _388  and  _390
REMARK  145  A    between atoms: _390  and  _391
REMARK  146  A    between atoms: _394  and  _396
REMARK  147  A    between atoms: _396  and  _397
REMARK  148  A    between atoms: _396  and  _399
REMARK  149  A    between atoms: _399  and  _400
REMARK  150  A    between atoms: _402  and  _404
REMARK  151  A    between atoms: _404  and  _405
REMARK  152  A    between atoms: _404  and  _407
REMARK  153  A    between atoms: _407  and  _408
REMARK  154  A    between atoms: _408  and  _409
REMARK  155  A    between atoms: _409  and  _410
REMARK  156  A    between atoms: _410  and  _411
REMARK  157  A    between atoms: _415  and  _417
REMARK  158  A    between atoms: _417  and  _418
REMARK  159  A    between atoms: _417  and  _420
REMARK  160  A    between atoms: _420  and  _421
REMARK  161  A    between atoms: _426  and  _428
REMARK  162  A    between atoms: _428  and  _429
REMARK  163  A    between atoms: _428  and  _431
REMARK  164  A    between atoms: _431  and  _432
REMARK  165  A    between atoms: _432  and  _433
REMARK  166  A    between atoms: _436  and  _438
REMARK  167  A    between atoms: _438  and  _439
REMARK  168  A    between atoms: _438  and  _441
REMARK  169  A    between atoms: _444  and  _446
REMARK  170  A    between atoms: _446  and  _447
REMARK  171  A    between atoms: _446  and  _449
REMARK  172  A    between atoms: _449  and  _450
REMARK  173  A    between atoms: _453  and  _455
REMARK  174  A    between atoms: _455  and  _456
REMARK  175  A    between atoms: _455  and  _458
REMARK  176  A    between atoms: _458  and  _459
REMARK  177  A    between atoms: _462  and  _464
REMARK  178  A    between atoms: _464  and  _465
REMARK  179  A    between atoms: _464  and  _467
REMARK  180  A    between atoms: _467  and  _468
REMARK  181  A    between atoms: _471  and  _473
REMARK  182  A    between atoms: _473  and  _474
REMARK  183  A    between atoms: _476  and  _478
REMARK  184  A    between atoms: _478  and  _479
REMARK  185  A    between atoms: _478  and  _481
REMARK  186  A    between atoms: _481  and  _482
REMARK  187  A    between atoms: _482  and  _483
REMARK  188  A    between atoms: _486  and  _488
REMARK  189  A    between atoms: _488  and  _489
REMARK  190  A    between atoms: _488  and  _491
REMARK  191  A    between atoms: _491  and  _492
REMARK  192  A    between atoms: _495  and  _497
REMARK  193  A    between atoms: _497  and  _498
REMARK  194  A    between atoms: _497  and  _500
REMARK  195  A    between atoms: _500  and  _501
REMARK  196  A    between atoms: _507  and  _509
REMARK  197  A    between atoms: _509  and  _510
REMARK  198  A    between atoms: _509  and  _512
REMARK  199  A    between atoms: _512  and  _513
REMARK  200  A    between atoms: _518  and  _520
REMARK  201  A    between atoms: _520  and  _521
REMARK  202  A    between atoms: _520  and  _523
REMARK  203  A    between atoms: _523  and  _524
REMARK  204  A    between atoms: _529  and  _531
REMARK  205  A    between atoms: _531  and  _532
REMARK  206  A    between atoms: _531  and  _534
REMARK  207  A    between atoms: _534  and  _535
REMARK  208  A    between atoms: _538  and  _540
REMARK  209  A    between atoms: _540  and  _541
REMARK  210  A    between atoms: _540  and  _543
REMARK  211  A    between atoms: _543  and  _544
REMARK  212  A    between atoms: _549  and  _551
REMARK  213  A    between atoms: _551  and  _552
REMARK  214  A    between atoms: _551  and  _554
REMARK  215  A    between atoms: _554  and  _555
REMARK  216  A    between atoms: _555  and  _556
REMARK  217  A    between atoms: _556  and  _557
REMARK  218  A    between atoms: _566  and  _568
REMARK  219  A    between atoms: _568  and  _569
REMARK  220  A    between atoms: _571  and  _573
REMARK  221  A    between atoms: _573  and  _574
REMARK  222  A    between atoms: _573  and  _576
REMARK  223  A    between atoms: _576  and  _577
REMARK  224  A    between atoms: _582  and  _584
REMARK  225  A    between atoms: _584  and  _585
REMARK  226  A    between atoms: _587  and  _589
REMARK  227  A    between atoms: _589  and  _590
REMARK  228  A    between atoms: _593  and  _595
REMARK  229  A    between atoms: _595  and  _596
REMARK  230  A    between atoms: _598  and  _600
REMARK  231  A    between atoms: _600  and  _601
REMARK  232  A    between atoms: _600  and  _603
REMARK  233  A    between atoms: _603  and  _604
REMARK  234  A    between atoms: _604  and  _605
REMARK  235  A    between atoms: _605  and  _606
REMARK  236  A    between atoms: _615  and  _617
REMARK  237  A    between atoms: _617  and  _618
REMARK  238  A    between atoms: _617  and  _620
REMARK  239  A    between atoms: _620  and  _621
REMARK  240  A    between atoms: _624  and  _626
REMARK  241  A    between atoms: _626  and  _627
REMARK  242  A    between atoms: _626  and  _629
REMARK  243  A    between atoms: _629  and  _630
REMARK                            x       y       z     vdW  Elec       q    Type
REMARK                         _______ _______ _______ _____ _____    ______ ____
ROOT
ATOM      1  O   HOH     1     -12.232  41.528  19.355  0.00  0.00    +0.000 OA
ENDROOT
TORSDOF 0
REMARK  Name = ../refined-set-2016/1ppi/1ppi_pocket.pdb
REMARK  243 active torsions:
REMARK  status: ('A' for Active; 'I' for Inactive)
REMARK    1  A    between atoms: _1  and  _3
REMARK    2  A    between atoms: _3  and  _4
REMARK    3  A    between atoms: _3  and  _6
REMARK    4  A    between atoms: _6  and  _7
REMARK    5  A    between atoms: _12  and  _14
REMARK    6  A    between atoms: _14  and  _15
REMARK    7  A    between atoms: _14  and  _17
REMARK    8  A    between atoms: _17  and  _18
REMARK    9  A    between atoms: _24  and  _26
REMARK   10  A    between atoms: _26  and  _27
REMARK   11  A    between atoms: _26  and  _29
REMARK   12  A    between atoms: _29  and  _30
REMARK   13  A    between atoms: _30  and  _31
REMARK   14  A    between atoms: _37  and  _38
REMARK   15  A    between atoms: _43  and  _45
REMARK   16  A    between atoms: _45  and  _46
REMARK   17  A    between atoms: _45  and  _48
REMARK   18  A    between atoms: _48  and  _49
REMARK   19  A    between atoms: _54  and  _56
REMARK   20  A    between atoms: _56  and  _57
REMARK   21  A    between atoms: _56  and  _59
REMARK   22  A    between atoms: _62  and  _64
REMARK   23  A    between atoms: _64  and  _65
REMARK   24  A    between atoms: _64  and  _67
REMARK   25  A    between atoms: _71  and  _72
REMARK   26  A    between atoms: _78  and  _79
REMARK   27  A    between atoms: _84  and  _86
REMARK   28  A    between atoms: _86  and  _87
REMARK   29  A    between atoms: _86  and  _89
REMARK   30  A    between atoms: _89  and  _90
REMARK   31  A    between atoms: _100  and  _102
REMARK   32  A    between atoms: _102  and  _103
REMARK   33  A    between atoms: _102  and  _105
REMARK   34  A    between atoms: _105  and  _106
REMARK   35  A    between atoms: _116  and  _118
REMARK   36  A    between atoms: _118  and  _119
REMARK   37  A    between atoms: _118  and  _121
REMARK   38  A    between atoms: _121  and  _122
REMARK   39  A    between atoms: _122  and  _123
REMARK   40  A    between atoms: _126  and  _128
REMARK   41  A    between atoms: _128  and  _129
REMARK   42  A    between atoms: _128  and  _131
REMARK   43  A    between atoms: _131  and  _132
REMARK   44  A    between atoms: _132  and  _133
REMARK   45  A    between atoms: _133  and  _134
REMARK   46  A    between atoms: _143  and  _145
REMARK   47  A    between atoms: _145  and  _146
REMARK   48  A    between atoms: _145  and  _148
REMARK   49  A    between atoms: _148  and  _149
REMARK   50  A    between atoms: _154  and  _155
REMARK   51  A    between atoms: _157  and  _159
REMARK   52  A    between atoms: _159  and  _160
REMARK   53  A    between atoms: _159  and  _162
REMARK   54  A    between atoms: _162  and  _163
REMARK   55  A    between atoms: _163  and  _164
REMARK   56  A    between atoms: _170  and  _171
REMARK   57  A    between atoms: _176  and  _178
REMARK   58  A    between atoms: _178  and  _179
REMARK   59  A    between atoms: _178  and  _181
REMARK   60  A    between atoms: _181  and  _182
REMARK   61  A    between atoms: _185  and  _187
REMARK   62  A    between atoms: _187  and  _188
REMARK   63  A    between atoms: _191  and  _193
REMARK   64  A    between atoms: _193  and  _194
REMARK   65  A    between atoms: _193  and  _196
REMARK   66  A    between atoms: _199  and  _201
REMARK   67  A    between atoms: _201  and  _202
REMARK   68  A    between atoms: _201  and  _204
REMARK   69  A    between atoms: _204  and  _205
REMARK   70  A    between atoms: _208  and  _210
REMARK   71  A    between atoms: _210  and  _211
REMARK   72  A    between atoms: _210  and  _213
REMARK   73  A    between atoms: _213  and  _214
REMARK   74  A    between atoms: _219  and  _221
REMARK   75  A    between atoms: _221  and  _222
REMARK   76  A    between atoms: _221  and  _224
REMARK   77  A    between atoms: _224  and  _225
REMARK   78  A    between atoms: _230  and  _232
REMARK   79  A    between atoms: _232  and  _233
REMARK   80  A    between atoms: _232  and  _235
REMARK   81  A    between atoms: _235  and  _236
REMARK   82  A    between atoms: _236  and  _237
REMARK   83  A    between atoms: _239  and  _241
REMARK   84  A    between atoms: _241  and  _242
REMARK   85  A    between atoms: _241  and  _244
REMARK   86  A    between atoms: _246  and  _248
REMARK   87  A    between atoms: _248  and  _249
REMARK   88  A    between atoms: _251  and  _253
REMARK   89  A    between atoms: _253  and  _254
REMARK   90  A    between atoms: _253  and  _256
REMARK   91  A    between atoms: _256  and  _257
REMARK   92  A    between atoms: _259  and  _261
REMARK   93  A    between atoms: _261  and  _262
REMARK   94  A    between atoms: _264  and  _266
REMARK   95  A    between atoms: _266  and  _267
REMARK   96  A    between atoms: _270  and  _272
REMARK   97  A    between atoms: _272  and  _273
REMARK   98  A    between atoms: _272  and  _275
REMARK   99  A    between atoms: _275  and  _276
REMARK  100  A    between atoms: _279  and  _281
REMARK  101  A    between atoms: _281  and  _282
REMARK  102  A    between atoms: _281  and  _284
REMARK  103  A    between atoms: _284  and  _285
REMARK  104  A    between atoms: _290  and  _291
REMARK  105  A    between atoms: _293  and  _295
REMARK  106  A    between atoms: _295  and  _296
REMARK  107  A    between atoms: _295  and  _298
REMARK  108  A    between atoms: _301  and  _303
REMARK  109  A    between atoms: _303  and  _304
REMARK  110  A    between atoms: _303  and  _306
REMARK  111  A    between atoms: _306  and  _307
REMARK  112  A    between atoms: _307  and  _308
REMARK  113  A    between atoms: _313  and  _315
REMARK  114  A    between atoms: _315  and  _316
REMARK  115  A    between atoms: _315  and  _318
REMARK  116  A    between atoms: _318  and  _319
REMARK  117  A    between atoms: _322  and  _324
REMARK  118  A    between atoms: _324  and  _325
REMARK  119  A    between atoms: _324  and  _327
REMARK  120  A    between atoms: _330  and  _332
REMARK  121  A    between atoms: _332  and  _333
REMARK  122  A    between atoms: _335  and  _337
REMARK  123  A    between atoms: _337  and  _338
REMARK  124  A    between atoms: _337  and  _340
REMARK  125  A    between atoms: _340  and  _341
REMARK  126  A    between atoms: _344  and  _346
REMARK  127  A    between atoms: _346  and  _347
REMARK  128  A    between atoms: _346  and  _349
REMARK  129  A    between atoms: _349  and  _350
REMARK  130  A    between atoms: _353  and  _355
REMARK  131  A    between atoms: _355  and  _356
REMARK  132  A    between atoms: _355  and  _358
REMARK  133  A    between atoms: _358  and  _359
REMARK  134  A    between atoms: _359  and  _360
REMARK  135  A    between atoms: _360  and  _361
REMARK  136  A    between atoms: _370  and  _372
REMARK  137  A    between atoms: _372  and  _373
REMARK  138  A    between atoms: _372  and  _375
REMARK  139  A    between atoms: _375  and  _376
REMARK  140  A    between atoms: _379  and  _381
REMARK  141  A    between atoms: _381  and  _382
REMARK  142  A    between atoms: _381  and  _384
REMARK  143  A    between atoms: _384  and  _385
REMARK  144  A    between atoms: _388  and  _390
REMARK  145  A    between atoms: _390  and  _391
REMARK  146  A    between atoms: _394  and  _396
REMARK  147  A    between atoms: _396  and  _397
REMARK  148  A    between atoms: _396  and  _399
REMARK  149  A    between atoms: _399  and  _400
REMARK  150  A    between atoms: _402  and  _404
REMARK  151  A    between atoms: _404  and  _405
REMARK  152  A    between atoms: _404  and  _407
REMARK  153  A    between atoms: _407  and  _408
REMARK  154  A    between atoms: _408  and  _409
REMARK  155  A    between atoms: _409  and  _410
REMARK  156  A    between atoms: _410  and  _411
REMARK  157  A    between atoms: _415  and  _417
REMARK  158  A    between atoms: _417  and  _418
REMARK  159  A    between atoms: _417  and  _420
REMARK  160  A    between atoms: _420  and  _421
REMARK  161  A    between atoms: _426  and  _428
REMARK  162  A    between atoms: _428  and  _429
REMARK  163  A    between atoms: _428  and  _431
REMARK  164  A    between atoms: _431  and  _432
REMARK  165  A    between atoms: _432  and  _433
REMARK  166  A    between atoms: _436  and  _438
REMARK  167  A    between atoms: _438  and  _439
REMARK  168  A    between atoms: _438  and  _441
REMARK  169  A    between atoms: _444  and  _446
REMARK  170  A    between atoms: _446  and  _447
REMARK  171  A    between atoms: _446  and  _449
REMARK  172  A    between atoms: _449  and  _450
REMARK  173  A    between atoms: _453  and  _455
REMARK  174  A    between atoms: _455  and  _456
REMARK  175  A    between atoms: _455  and  _458
REMARK  176  A    between atoms: _458  and  _459
REMARK  177  A    between atoms: _462  and  _464
REMARK  178  A    between atoms: _464  and  _465
REMARK  179  A    between atoms: _464  and  _467
REMARK  180  A    between atoms: _467  and  _468
REMARK  181  A    between atoms: _471  and  _473
REMARK  182  A    between atoms: _473  and  _474
REMARK  183  A    between atoms: _476  and  _478
REMARK  184  A    between atoms: _478  and  _479
REMARK  185  A    between atoms: _478  and  _481
REMARK  186  A    between atoms: _481  and  _482
REMARK  187  A    between atoms: _482  and  _483
REMARK  188  A    between atoms: _486  and  _488
REMARK  189  A    between atoms: _488  and  _489
REMARK  190  A    between atoms: _488  and  _491
REMARK  191  A    between atoms: _491  and  _492
REMARK  192  A    between atoms: _495  and  _497
REMARK  193  A    between atoms: _497  and  _498
REMARK  194  A    between atoms: _497  and  _500
REMARK  195  A    between atoms: _500  and  _501
REMARK  196  A    between atoms: _507  and  _509
REMARK  197  A    between atoms: _509  and  _510
REMARK  198  A    between atoms: _509  and  _512
REMARK  199  A    between atoms: _512  and  _513
REMARK  200  A    between atoms: _518  and  _520
REMARK  201  A    between atoms: _520  and  _521
REMARK  202  A    between atoms: _520  and  _523
REMARK  203  A    between atoms: _523  and  _524
REMARK  204  A    between atoms: _529  and  _531
REMARK  205  A    between atoms: _531  and  _532
REMARK  206  A    between atoms: _531  and  _534
REMARK  207  A    between atoms: _534  and  _535
REMARK  208  A    between atoms: _538  and  _540
REMARK  209  A    between atoms: _540  and  _541
REMARK  210  A    between atoms: _540  and  _543
REMARK  211  A    between atoms: _543  and  _544
REMARK  212  A    between atoms: _549  and  _551
REMARK  213  A    between atoms: _551  and  _552
REMARK  214  A    between atoms: _551  and  _554
REMARK  215  A    between atoms: _554  and  _555
REMARK  216  A    between atoms: _555  and  _556
REMARK  217  A    between atoms: _556  and  _557
REMARK  218  A    between atoms: _566  and  _568
REMARK  219  A    between atoms: _568  and  _569
REMARK  220  A    between atoms: _571  and  _573
REMARK  221  A    between atoms: _573  and  _574
REMARK  222  A    between atoms: _573  and  _576
REMARK  223  A    between atoms: _576  and  _577
REMARK  224  A    between atoms: _582  and  _584
REMARK  225  A    between atoms: _584  and  _585
REMARK  226  A    between atoms: _587  and  _589
REMARK  227  A    between atoms: _589  and  _590
REMARK  228  A    between atoms: _593  and  _595
REMARK  229  A    between atoms: _595  and  _596
REMARK  230  A    between atoms: _598  and  _600
REMARK  231  A    between atoms: _600  and  _601
REMARK  232  A    between atoms: _600  and  _603
REMARK  233  A    between atoms: _603  and  _604
REMARK  234  A    between atoms: _604  and  _605
REMARK  235  A    between atoms: _605  and  _606
REMARK  236  A    between atoms: _615  and  _617
REMARK  237  A    between atoms: _617  and  _618
REMARK  238  A    between atoms: _617  and  _620
REMARK  239  A    between atoms: _620  and  _621
REMARK  240  A    between atoms: _624  and  _626
REMARK  241  A    between atoms: _626  and  _627
REMARK  242  A    between atoms: _626  and  _629
REMARK  243  A    between atoms: _629  and  _630
REMARK                            x       y       z     vdW  Elec       q    Type
REMARK                         _______ _______ _______ _____ _____    ______ ____
ROOT
ATOM      1  O   HOH     1     -13.781  44.045  17.104  0.00  0.00    +0.000 OA
ENDROOT
TORSDOF 0
REMARK  Name = ../refined-set-2016/1ppi/1ppi_pocket.pdb
REMARK  243 active torsions:
REMARK  status: ('A' for Active; 'I' for Inactive)
REMARK    1  A    between atoms: _1  and  _3
REMARK    2  A    between atoms: _3  and  _4
REMARK    3  A    between atoms: _3  and  _6
REMARK    4  A    between atoms: _6  and  _7
REMARK    5  A    between atoms: _12  and  _14
REMARK    6  A    between atoms: _14  and  _15
REMARK    7  A    between atoms: _14  and  _17
REMARK    8  A    between atoms: _17  and  _18
REMARK    9  A    between atoms: _24  and  _26
REMARK   10  A    between atoms: _26  and  _27
REMARK   11  A    between atoms: _26  and  _29
REMARK   12  A    between atoms: _29  and  _30
REMARK   13  A    between atoms: _30  and  _31
REMARK   14  A    between atoms: _37  and  _38
REMARK   15  A    between atoms: _43  and  _45
REMARK   16  A    between atoms: _45  and  _46
REMARK   17  A    between atoms: _45  and  _48
REMARK   18  A    between atoms: _48  and  _49
REMARK   19  A    between atoms: _54  and  _56
REMARK   20  A    between atoms: _56  and  _57
REMARK   21  A    between atoms: _56  and  _59
REMARK   22  A    between atoms: _62  and  _64
REMARK   23  A    between atoms: _64  and  _65
REMARK   24  A    between atoms: _64  and  _67
REMARK   25  A    between atoms: _71  and  _72
REMARK   26  A    between atoms: _78  and  _79
REMARK   27  A    between atoms: _84  and  _86
REMARK   28  A    between atoms: _86  and  _87
REMARK   29  A    between atoms: _86  and  _89
REMARK   30  A    between atoms: _89  and  _90
REMARK   31  A    between atoms: _100  and  _102
REMARK   32  A    between atoms: _102  and  _103
REMARK   33  A    between atoms: _102  and  _105
REMARK   34  A    between atoms: _105  and  _106
REMARK   35  A    between atoms: _116  and  _118
REMARK   36  A    between atoms: _118  and  _119
REMARK   37  A    between atoms: _118  and  _121
REMARK   38  A    between atoms: _121  and  _122
REMARK   39  A    between atoms: _122  and  _123
REMARK   40  A    between atoms: _126  and  _128
REMARK   41  A    between atoms: _128  and  _129
REMARK   42  A    between atoms: _128  and  _131
REMARK   43  A    between atoms: _131  and  _132
REMARK   44  A    between atoms: _132  and  _133
REMARK   45  A    between atoms: _133  and  _134
REMARK   46  A    between atoms: _143  and  _145
REMARK   47  A    between atoms: _145  and  _146
REMARK   48  A    between atoms: _145  and  _148
REMARK   49  A    between atoms: _148  and  _149
REMARK   50  A    between atoms: _154  and  _155
REMARK   51  A    between atoms: _157  and  _159
REMARK   52  A    between atoms: _159  and  _160
REMARK   53  A    between atoms: _159  and  _162
REMARK   54  A    between atoms: _162  and  _163
REMARK   55  A    between atoms: _163  and  _164
REMARK   56  A    between atoms: _170  and  _171
REMARK   57  A    between atoms: _176  and  _178
REMARK   58  A    between atoms: _178  and  _179
REMARK   59  A    between atoms: _178  and  _181
REMARK   60  A    between atoms: _181  and  _182
REMARK   61  A    between atoms: _185  and  _187
REMARK   62  A    between atoms: _187  and  _188
REMARK   63  A    between atoms: _191  and  _193
REMARK   64  A    between atoms: _193  and  _194
REMARK   65  A    between atoms: _193  and  _196
REMARK   66  A    between atoms: _199  and  _201
REMARK   67  A    between atoms: _201  and  _202
REMARK   68  A    between atoms: _201  and  _204
REMARK   69  A    between atoms: _204  and  _205
REMARK   70  A    between atoms: _208  and  _210
REMARK   71  A    between atoms: _210  and  _211
REMARK   72  A    between atoms: _210  and  _213
REMARK   73  A    between atoms: _213  and  _214
REMARK   74  A    between atoms: _219  and  _221
REMARK   75  A    between atoms: _221  and  _222
REMARK   76  A    between atoms: _221  and  _224
REMARK   77  A    between atoms: _224  and  _225
REMARK   78  A    between atoms: _230  and  _232
REMARK   79  A    between atoms: _232  and  _233
REMARK   80  A    between atoms: _232  and  _235
REMARK   81  A    between atoms: _235  and  _236
REMARK   82  A    between atoms: _236  and  _237
REMARK   83  A    between atoms: _239  and  _241
REMARK   84  A    between atoms: _241  and  _242
REMARK   85  A    between atoms: _241  and  _244
REMARK   86  A    between atoms: _246  and  _248
REMARK   87  A    between atoms: _248  and  _249
REMARK   88  A    between atoms: _251  and  _253
REMARK   89  A    between atoms: _253  and  _254
REMARK   90  A    between atoms: _253  and  _256
REMARK   91  A    between atoms: _256  and  _257
REMARK   92  A    between atoms: _259  and  _261
REMARK   93  A    between atoms: _261  and  _262
REMARK   94  A    between atoms: _264  and  _266
REMARK   95  A    between atoms: _266  and  _267
REMARK   96  A    between atoms: _270  and  _272
REMARK   97  A    between atoms: _272  and  _273
REMARK   98  A    between atoms: _272  and  _275
REMARK   99  A    between atoms: _275  and  _276
REMARK  100  A    between atoms: _279  and  _281
REMARK  101  A    between atoms: _281  and  _282
REMARK  102  A    between atoms: _281  and  _284
REMARK  103  A    between atoms: _284  and  _285
REMARK  104  A    between atoms: _290  and  _291
REMARK  105  A    between atoms: _293  and  _295
REMARK  106  A    between atoms: _295  and  _296
REMARK  107  A    between atoms: _295  and  _298
REMARK  108  A    between atoms: _301  and  _303
REMARK  109  A    between atoms: _303  and  _304
REMARK  110  A    between atoms: _303  and  _306
REMARK  111  A    between atoms: _306  and  _307
REMARK  112  A    between atoms: _307  and  _308
REMARK  113  A    between atoms: _313  and  _315
REMARK  114  A    between atoms: _315  and  _316
REMARK  115  A    between atoms: _315  and  _318
REMARK  116  A    between atoms: _318  and  _319
REMARK  117  A    between atoms: _322  and  _324
REMARK  118  A    between atoms: _324  and  _325
REMARK  119  A    between atoms: _324  and  _327
REMARK  120  A    between atoms: _330  and  _332
REMARK  121  A    between atoms: _332  and  _333
REMARK  122  A    between atoms: _335  and  _337
REMARK  123  A    between atoms: _337  and  _338
REMARK  124  A    between atoms: _337  and  _340
REMARK  125  A    between atoms: _340  and  _341
REMARK  126  A    between atoms: _344  and  _346
REMARK  127  A    between atoms: _346  and  _347
REMARK  128  A    between atoms: _346  and  _349
REMARK  129  A    between atoms: _349  and  _350
REMARK  130  A    between atoms: _353  and  _355
REMARK  131  A    between atoms: _355  and  _356
REMARK  132  A    between atoms: _355  and  _358
REMARK  133  A    between atoms: _358  and  _359
REMARK  134  A    between atoms: _359  and  _360
REMARK  135  A    between atoms: _360  and  _361
REMARK  136  A    between atoms: _370  and  _372
REMARK  137  A    between atoms: _372  and  _373
REMARK  138  A    between atoms: _372  and  _375
REMARK  139  A    between atoms: _375  and  _376
REMARK  140  A    between atoms: _379  and  _381
REMARK  141  A    between atoms: _381  and  _382
REMARK  142  A    between atoms: _381  and  _384
REMARK  143  A    between atoms: _384  and  _385
REMARK  144  A    between atoms: _388  and  _390
REMARK  145  A    between atoms: _390  and  _391
REMARK  146  A    between atoms: _394  and  _396
REMARK  147  A    between atoms: _396  and  _397
REMARK  148  A    between atoms: _396  and  _399
REMARK  149  A    between atoms: _399  and  _400
REMARK  150  A    between atoms: _402  and  _404
REMARK  151  A    between atoms: _404  and  _405
REMARK  152  A    between atoms: _404  and  _407
REMARK  153  A    between atoms: _407  and  _408
REMARK  154  A    between atoms: _408  and  _409
REMARK  155  A    between atoms: _409  and  _410
REMARK  156  A    between atoms: _410  and  _411
REMARK  157  A    between atoms: _415  and  _417
REMARK  158  A    between atoms: _417  and  _418
REMARK  159  A    between atoms: _417  and  _420
REMARK  160  A    between atoms: _420  and  _421
REMARK  161  A    between atoms: _426  and  _428
REMARK  162  A    between atoms: _428  and  _429
REMARK  163  A    between atoms: _428  and  _431
REMARK  164  A    between atoms: _431  and  _432
REMARK  165  A    between atoms: _432  and  _433
REMARK  166  A    between atoms: _436  and  _438
REMARK  167  A    between atoms: _438  and  _439
REMARK  168  A    between atoms: _438  and  _441
REMARK  169  A    between atoms: _444  and  _446
REMARK  170  A    between atoms: _446  and  _447
REMARK  171  A    between atoms: _446  and  _449
REMARK  172  A    between atoms: _449  and  _450
REMARK  173  A    between atoms: _453  and  _455
REMARK  174  A    between atoms: _455  and  _456
REMARK  175  A    between atoms: _455  and  _458
REMARK  176  A    between atoms: _458  and  _459
REMARK  177  A    between atoms: _462  and  _464
REMARK  178  A    between atoms: _464  and  _465
REMARK  179  A    between atoms: _464  and  _467
REMARK  180  A    between atoms: _467  and  _468
REMARK  181  A    between atoms: _471  and  _473
REMARK  182  A    between atoms: _473  and  _474
REMARK  183  A    between atoms: _476  and  _478
REMARK  184  A    between atoms: _478  and  _479
REMARK  185  A    between atoms: _478  and  _481
REMARK  186  A    between atoms: _481  and  _482
REMARK  187  A    between atoms: _482  and  _483
REMARK  188  A    between atoms: _486  and  _488
REMARK  189  A    between atoms: _488  and  _489
REMARK  190  A    between atoms: _488  and  _491
REMARK  191  A    between atoms: _491  and  _492
REMARK  192  A    between atoms: _495  and  _497
REMARK  193  A    between atoms: _497  and  _498
REMARK  194  A    between atoms: _497  and  _500
REMARK  195  A    between atoms: _500  and  _501
REMARK  196  A    between atoms: _507  and  _509
REMARK  197  A    between atoms: _509  and  _510
REMARK  198  A    between atoms: _509  and  _512
REMARK  199  A    between atoms: _512  and  _513
REMARK  200  A    between atoms: _518  and  _520
REMARK  201  A    between atoms: _520  and  _521
REMARK  202  A    between atoms: _520  and  _523
REMARK  203  A    between atoms: _523  and  _524
REMARK  204  A    between atoms: _529  and  _531
REMARK  205  A    between atoms: _531  and  _532
REMARK  206  A    between atoms: _531  and  _534
REMARK  207  A    between atoms: _534  and  _535
REMARK  208  A    between atoms: _538  and  _540
REMARK  209  A    between atoms: _540  and  _541
REMARK  210  A    between atoms: _540  and  _543
REMARK  211  A    between atoms: _543  and  _544
REMARK  212  A    between atoms: _549  and  _551
REMARK  213  A    between atoms: _551  and  _552
REMARK  214  A    between atoms: _551  and  _554
REMARK  215  A    between atoms: _554  and  _555
REMARK  216  A    between atoms: _555  and  _556
REMARK  217  A    between atoms: _556  and  _557
REMARK  218  A    between atoms: _566  and  _568
REMARK  219  A    between atoms: _568  and  _569
REMARK  220  A    between atoms: _571  and  _573
REMARK  221  A    between atoms: _573  and  _574
REMARK  222  A    between atoms: _573  and  _576
REMARK  223  A    between atoms: _576  and  _577
REMARK  224  A    between atoms: _582  and  _584
REMARK  225  A    between atoms: _584  and  _585
REMARK  226  A    between atoms: _587  and  _589
REMARK  227  A    between atoms: _589  and  _590
REMARK  228  A    between atoms: _593  and  _595
REMARK  229  A    between atoms: _595  and  _596
REMARK  230  A    between atoms: _598  and  _600
REMARK  231  A    between atoms: _600  and  _601
REMARK  232  A    between atoms: _600  and  _603
REMARK  233  A    between atoms: _603  and  _604
REMARK  234  A    between atoms: _604  and  _605
REMARK  235  A    between atoms: _605  and  _606
REMARK  236  A    between atoms: _615  and  _617
REMARK  237  A    between atoms: _617  and  _618
REMARK  238  A    between atoms: _617  and  _620
REMARK  239  A    between atoms: _620  and  _621
REMARK  240  A    between atoms: _624  and  _626
REMARK  241  A    between atoms: _626  and  _627
REMARK  242  A    between atoms: _626  and  _629
REMARK  243  A    between atoms: _629  and  _630
REMARK                            x       y       z     vdW  Elec       q    Type
REMARK                         _______ _______ _______ _____ _____    ______ ____
ROOT
ATOM      1  O   HOH     1     -12.533  44.175  19.285  0.00  0.00    +0.000 OA
ENDROOT
TORSDOF 0
REMARK  Name = ../refined-set-2016/1ppi/1ppi_pocket.pdb
REMARK  243 active torsions:
REMARK  status: ('A' for Active; 'I' for Inactive)
REMARK    1  A    between atoms: _1  and  _3
REMARK    2  A    between atoms: _3  and  _4
REMARK    3  A    between atoms: _3  and  _6
REMARK    4  A    between atoms: _6  and  _7
REMARK    5  A    between atoms: _12  and  _14
REMARK    6  A    between atoms: _14  and  _15
REMARK    7  A    between atoms: _14  and  _17
REMARK    8  A    between atoms: _17  and  _18
REMARK    9  A    between atoms: _24  and  _26
REMARK   10  A    between atoms: _26  and  _27
REMARK   11  A    between atoms: _26  and  _29
REMARK   12  A    between atoms: _29  and  _30
REMARK   13  A    between atoms: _30  and  _31
REMARK   14  A    between atoms: _37  and  _38
REMARK   15  A    between atoms: _43  and  _45
REMARK   16  A    between atoms: _45  and  _46
REMARK   17  A    between atoms: _45  and  _48
REMARK   18  A    between atoms: _48  and  _49
REMARK   19  A    between atoms: _54  and  _56
REMARK   20  A    between atoms: _56  and  _57
REMARK   21  A    between atoms: _56  and  _59
REMARK   22  A    between atoms: _62  and  _64
REMARK   23  A    between atoms: _64  and  _65
REMARK   24  A    between atoms: _64  and  _67
REMARK   25  A    between atoms: _71  and  _72
REMARK   26  A    between atoms: _78  and  _79
REMARK   27  A    between atoms: _84  and  _86
REMARK   28  A    between atoms: _86  and  _87
REMARK   29  A    between atoms: _86  and  _89
REMARK   30  A    between atoms: _89  and  _90
REMARK   31  A    between atoms: _100  and  _102
REMARK   32  A    between atoms: _102  and  _103
REMARK   33  A    between atoms: _102  and  _105
REMARK   34  A    between atoms: _105  and  _106
REMARK   35  A    between atoms: _116  and  _118
REMARK   36  A    between atoms: _118  and  _119
REMARK   37  A    between atoms: _118  and  _121
REMARK   38  A    between atoms: _121  and  _122
REMARK   39  A    between atoms: _122  and  _123
REMARK   40  A    between atoms: _126  and  _128
REMARK   41  A    between atoms: _128  and  _129
REMARK   42  A    between atoms: _128  and  _131
REMARK   43  A    between atoms: _131  and  _132
REMARK   44  A    between atoms: _132  and  _133
REMARK   45  A    between atoms: _133  and  _134
REMARK   46  A    between atoms: _143  and  _145
REMARK   47  A    between atoms: _145  and  _146
REMARK   48  A    between atoms: _145  and  _148
REMARK   49  A    between atoms: _148  and  _149
REMARK   50  A    between atoms: _154  and  _155
REMARK   51  A    between atoms: _157  and  _159
REMARK   52  A    between atoms: _159  and  _160
REMARK   53  A    between atoms: _159  and  _162
REMARK   54  A    between atoms: _162  and  _163
REMARK   55  A    between atoms: _163  and  _164
REMARK   56  A    between atoms: _170  and  _171
REMARK   57  A    between atoms: _176  and  _178
REMARK   58  A    between atoms: _178  and  _179
REMARK   59  A    between atoms: _178  and  _181
REMARK   60  A    between atoms: _181  and  _182
REMARK   61  A    between atoms: _185  and  _187
REMARK   62  A    between atoms: _187  and  _188
REMARK   63  A    between atoms: _191  and  _193
REMARK   64  A    between atoms: _193  and  _194
REMARK   65  A    between atoms: _193  and  _196
REMARK   66  A    between atoms: _199  and  _201
REMARK   67  A    between atoms: _201  and  _202
REMARK   68  A    between atoms: _201  and  _204
REMARK   69  A    between atoms: _204  and  _205
REMARK   70  A    between atoms: _208  and  _210
REMARK   71  A    between atoms: _210  and  _211
REMARK   72  A    between atoms: _210  and  _213
REMARK   73  A    between atoms: _213  and  _214
REMARK   74  A    between atoms: _219  and  _221
REMARK   75  A    between atoms: _221  and  _222
REMARK   76  A    between atoms: _221  and  _224
REMARK   77  A    between atoms: _224  and  _225
REMARK   78  A    between atoms: _230  and  _232
REMARK   79  A    between atoms: _232  and  _233
REMARK   80  A    between atoms: _232  and  _235
REMARK   81  A    between atoms: _235  and  _236
REMARK   82  A    between atoms: _236  and  _237
REMARK   83  A    between atoms: _239  and  _241
REMARK   84  A    between atoms: _241  and  _242
REMARK   85  A    between atoms: _241  and  _244
REMARK   86  A    between atoms: _246  and  _248
REMARK   87  A    between atoms: _248  and  _249
REMARK   88  A    between atoms: _251  and  _253
REMARK   89  A    between atoms: _253  and  _254
REMARK   90  A    between atoms: _253  and  _256
REMARK   91  A    between atoms: _256  and  _257
REMARK   92  A    between atoms: _259  and  _261
REMARK   93  A    between atoms: _261  and  _262
REMARK   94  A    between atoms: _264  and  _266
REMARK   95  A    between atoms: _266  and  _267
REMARK   96  A    between atoms: _270  and  _272
REMARK   97  A    between atoms: _272  and  _273
REMARK   98  A    between atoms: _272  and  _275
REMARK   99  A    between atoms: _275  and  _276
REMARK  100  A    between atoms: _279  and  _281
REMARK  101  A    between atoms: _281  and  _282
REMARK  102  A    between atoms: _281  and  _284
REMARK  103  A    between atoms: _284  and  _285
REMARK  104  A    between atoms: _290  and  _291
REMARK  105  A    between atoms: _293  and  _295
REMARK  106  A    between atoms: _295  and  _296
REMARK  107  A    between atoms: _295  and  _298
REMARK  108  A    between atoms: _301  and  _303
REMARK  109  A    between atoms: _303  and  _304
REMARK  110  A    between atoms: _303  and  _306
REMARK  111  A    between atoms: _306  and  _307
REMARK  112  A    between atoms: _307  and  _308
REMARK  113  A    between atoms: _313  and  _315
REMARK  114  A    between atoms: _315  and  _316
REMARK  115  A    between atoms: _315  and  _318
REMARK  116  A    between atoms: _318  and  _319
REMARK  117  A    between atoms: _322  and  _324
REMARK  118  A    between atoms: _324  and  _325
REMARK  119  A    between atoms: _324  and  _327
REMARK  120  A    between atoms: _330  and  _332
REMARK  121  A    between atoms: _332  and  _333
REMARK  122  A    between atoms: _335  and  _337
REMARK  123  A    between atoms: _337  and  _338
REMARK  124  A    between atoms: _337  and  _340
REMARK  125  A    between atoms: _340  and  _341
REMARK  126  A    between atoms: _344  and  _346
REMARK  127  A    between atoms: _346  and  _347
REMARK  128  A    between atoms: _346  and  _349
REMARK  129  A    between atoms: _349  and  _350
REMARK  130  A    between atoms: _353  and  _355
REMARK  131  A    between atoms: _355  and  _356
REMARK  132  A    between atoms: _355  and  _358
REMARK  133  A    between atoms: _358  and  _359
REMARK  134  A    between atoms: _359  and  _360
REMARK  135  A    between atoms: _360  and  _361
REMARK  136  A    between atoms: _370  and  _372
REMARK  137  A    between atoms: _372  and  _373
REMARK  138  A    between atoms: _372  and  _375
REMARK  139  A    between atoms: _375  and  _376
REMARK  140  A    between atoms: _379  and  _381
REMARK  141  A    between atoms: _381  and  _382
REMARK  142  A    between atoms: _381  and  _384
REMARK  143  A    between atoms: _384  and  _385
REMARK  144  A    between atoms: _388  and  _390
REMARK  145  A    between atoms: _390  and  _391
REMARK  146  A    between atoms: _394  and  _396
REMARK  147  A    between atoms: _396  and  _397
REMARK  148  A    between atoms: _396  and  _399
REMARK  149  A    between atoms: _399  and  _400
REMARK  150  A    between atoms: _402  and  _404
REMARK  151  A    between atoms: _404  and  _405
REMARK  152  A    between atoms: _404  and  _407
REMARK  153  A    between atoms: _407  and  _408
REMARK  154  A    between atoms: _408  and  _409
REMARK  155  A    between atoms: _409  and  _410
REMARK  156  A    between atoms: _410  and  _411
REMARK  157  A    between atoms: _415  and  _417
REMARK  158  A    between atoms: _417  and  _418
REMARK  159  A    between atoms: _417  and  _420
REMARK  160  A    between atoms: _420  and  _421
REMARK  161  A    between atoms: _426  and  _428
REMARK  162  A    between atoms: _428  and  _429
REMARK  163  A    between atoms: _428  and  _431
REMARK  164  A    between atoms: _431  and  _432
REMARK  165  A    between atoms: _432  and  _433
REMARK  166  A    between atoms: _436  and  _438
REMARK  167  A    between atoms: _438  and  _439
REMARK  168  A    between atoms: _438  and  _441
REMARK  169  A    between atoms: _444  and  _446
REMARK  170  A    between atoms: _446  and  _447
REMARK  171  A    between atoms: _446  and  _449
REMARK  172  A    between atoms: _449  and  _450
REMARK  173  A    between atoms: _453  and  _455
REMARK  174  A    between atoms: _455  and  _456
REMARK  175  A    between atoms: _455  and  _458
REMARK  176  A    between atoms: _458  and  _459
REMARK  177  A    between atoms: _462  and  _464
REMARK  178  A    between atoms: _464  and  _465
REMARK  179  A    between atoms: _464  and  _467
REMARK  180  A    between atoms: _467  and  _468
REMARK  181  A    between atoms: _471  and  _473
REMARK  182  A    between atoms: _473  and  _474
REMARK  183  A    between atoms: _476  and  _478
REMARK  184  A    between atoms: _478  and  _479
REMARK  185  A    between atoms: _478  and  _481
REMARK  186  A    between atoms: _481  and  _482
REMARK  187  A    between atoms: _482  and  _483
REMARK  188  A    between atoms: _486  and  _488
REMARK  189  A    between atoms: _488  and  _489
REMARK  190  A    between atoms: _488  and  _491
REMARK  191  A    between atoms: _491  and  _492
REMARK  192  A    between atoms: _495  and  _497
REMARK  193  A    between atoms: _497  and  _498
REMARK  194  A    between atoms: _497  and  _500
REMARK  195  A    between atoms: _500  and  _501
REMARK  196  A    between atoms: _507  and  _509
REMARK  197  A    between atoms: _509  and  _510
REMARK  198  A    between atoms: _509  and  _512
REMARK  199  A    between atoms: _512  and  _513
REMARK  200  A    between atoms: _518  and  _520
REMARK  201  A    between atoms: _520  and  _521
REMARK  202  A    between atoms: _520  and  _523
REMARK  203  A    between atoms: _523  and  _524
REMARK  204  A    between atoms: _529  and  _531
REMARK  205  A    between atoms: _531  and  _532
REMARK  206  A    between atoms: _531  and  _534
REMARK  207  A    between atoms: _534  and  _535
REMARK  208  A    between atoms: _538  and  _540
REMARK  209  A    between atoms: _540  and  _541
REMARK  210  A    between atoms: _540  and  _543
REMARK  211  A    between atoms: _543  and  _544
REMARK  212  A    between atoms: _549  and  _551
REMARK  213  A    between atoms: _551  and  _552
REMARK  214  A    between atoms: _551  and  _554
REMARK  215  A    between atoms: _554  and  _555
REMARK  216  A    between atoms: _555  and  _556
REMARK  217  A    between atoms: _556  and  _557
REMARK  218  A    between atoms: _566  and  _568
REMARK  219  A    between atoms: _568  and  _569
REMARK  220  A    between atoms: _571  and  _573
REMARK  221  A    between atoms: _573  and  _574
REMARK  222  A    between atoms: _573  and  _576
REMARK  223  A    between atoms: _576  and  _577
REMARK  224  A    between atoms: _582  and  _584
REMARK  225  A    between atoms: _584  and  _585
REMARK  226  A    between atoms: _587  and  _589
REMARK  227  A    between atoms: _589  and  _590
REMARK  228  A    between atoms: _593  and  _595
REMARK  229  A    between atoms: _595  and  _596
REMARK  230  A    between atoms: _598  and  _600
REMARK  231  A    between atoms: _600  and  _601
REMARK  232  A    between atoms: _600  and  _603
REMARK  233  A    between atoms: _603  and  _604
REMARK  234  A    between atoms: _604  and  _605
REMARK  235  A    between atoms: _605  and  _606
REMARK  236  A    between atoms: _615  and  _617
REMARK  237  A    between atoms: _617  and  _618
REMARK  238  A    between atoms: _617  and  _620
REMARK  239  A    between atoms: _620  and  _621
REMARK  240  A    between atoms: _624  and  _626
REMARK  241  A    between atoms: _626  and  _627
REMARK  242  A    between atoms: _626  and  _629
REMARK  243  A    between atoms: _629  and  _630
REMARK                            x       y       z     vdW  Elec       q    Type
REMARK                         _______ _______ _______ _____ _____    ______ ____
ROOT
ATOM      1  O   HOH     1       0.959  49.130   2.941  0.00  0.00    +0.000 OA
ENDROOT
TORSDOF 0
REMARK  Name = ../refined-set-2016/1ppi/1ppi_pocket.pdb
REMARK  243 active torsions:
REMARK  status: ('A' for Active; 'I' for Inactive)
REMARK    1  A    between atoms: _1  and  _3
REMARK    2  A    between atoms: _3  and  _4
REMARK    3  A    between atoms: _3  and  _6
REMARK    4  A    between atoms: _6  and  _7
REMARK    5  A    between atoms: _12  and  _14
REMARK    6  A    between atoms: _14  and  _15
REMARK    7  A    between atoms: _14  and  _17
REMARK    8  A    between atoms: _17  and  _18
REMARK    9  A    between atoms: _24  and  _26
REMARK   10  A    between atoms: _26  and  _27
REMARK   11  A    between atoms: _26  and  _29
REMARK   12  A    between atoms: _29  and  _30
REMARK   13  A    between atoms: _30  and  _31
REMARK   14  A    between atoms: _37  and  _38
REMARK   15  A    between atoms: _43  and  _45
REMARK   16  A    between atoms: _45  and  _46
REMARK   17  A    between atoms: _45  and  _48
REMARK   18  A    between atoms: _48  and  _49
REMARK   19  A    between atoms: _54  and  _56
REMARK   20  A    between atoms: _56  and  _57
REMARK   21  A    between atoms: _56  and  _59
REMARK   22  A    between atoms: _62  and  _64
REMARK   23  A    between atoms: _64  and  _65
REMARK   24  A    between atoms: _64  and  _67
REMARK   25  A    between atoms: _71  and  _72
REMARK   26  A    between atoms: _78  and  _79
REMARK   27  A    between atoms: _84  and  _86
REMARK   28  A    between atoms: _86  and  _87
REMARK   29  A    between atoms: _86  and  _89
REMARK   30  A    between atoms: _89  and  _90
REMARK   31  A    between atoms: _100  and  _102
REMARK   32  A    between atoms: _102  and  _103
REMARK   33  A    between atoms: _102  and  _105
REMARK   34  A    between atoms: _105  and  _106
REMARK   35  A    between atoms: _116  and  _118
REMARK   36  A    between atoms: _118  and  _119
REMARK   37  A    between atoms: _118  and  _121
REMARK   38  A    between atoms: _121  and  _122
REMARK   39  A    between atoms: _122  and  _123
REMARK   40  A    between atoms: _126  and  _128
REMARK   41  A    between atoms: _128  and  _129
REMARK   42  A    between atoms: _128  and  _131
REMARK   43  A    between atoms: _131  and  _132
REMARK   44  A    between atoms: _132  and  _133
REMARK   45  A    between atoms: _133  and  _134
REMARK   46  A    between atoms: _143  and  _145
REMARK   47  A    between atoms: _145  and  _146
REMARK   48  A    between atoms: _145  and  _148
REMARK   49  A    between atoms: _148  and  _149
REMARK   50  A    between atoms: _154  and  _155
REMARK   51  A    between atoms: _157  and  _159
REMARK   52  A    between atoms: _159  and  _160
REMARK   53  A    between atoms: _159  and  _162
REMARK   54  A    between atoms: _162  and  _163
REMARK   55  A    between atoms: _163  and  _164
REMARK   56  A    between atoms: _170  and  _171
REMARK   57  A    between atoms: _176  and  _178
REMARK   58  A    between atoms: _178  and  _179
REMARK   59  A    between atoms: _178  and  _181
REMARK   60  A    between atoms: _181  and  _182
REMARK   61  A    between atoms: _185  and  _187
REMARK   62  A    between atoms: _187  and  _188
REMARK   63  A    between atoms: _191  and  _193
REMARK   64  A    between atoms: _193  and  _194
REMARK   65  A    between atoms: _193  and  _196
REMARK   66  A    between atoms: _199  and  _201
REMARK   67  A    between atoms: _201  and  _202
REMARK   68  A    between atoms: _201  and  _204
REMARK   69  A    between atoms: _204  and  _205
REMARK   70  A    between atoms: _208  and  _210
REMARK   71  A    between atoms: _210  and  _211
REMARK   72  A    between atoms: _210  and  _213
REMARK   73  A    between atoms: _213  and  _214
REMARK   74  A    between atoms: _219  and  _221
REMARK   75  A    between atoms: _221  and  _222
REMARK   76  A    between atoms: _221  and  _224
REMARK   77  A    between atoms: _224  and  _225
REMARK   78  A    between atoms: _230  and  _232
REMARK   79  A    between atoms: _232  and  _233
REMARK   80  A    between atoms: _232  and  _235
REMARK   81  A    between atoms: _235  and  _236
REMARK   82  A    between atoms: _236  and  _237
REMARK   83  A    between atoms: _239  and  _241
REMARK   84  A    between atoms: _241  and  _242
REMARK   85  A    between atoms: _241  and  _244
REMARK   86  A    between atoms: _246  and  _248
REMARK   87  A    between atoms: _248  and  _249
REMARK   88  A    between atoms: _251  and  _253
REMARK   89  A    between atoms: _253  and  _254
REMARK   90  A    between atoms: _253  and  _256
REMARK   91  A    between atoms: _256  and  _257
REMARK   92  A    between atoms: _259  and  _261
REMARK   93  A    between atoms: _261  and  _262
REMARK   94  A    between atoms: _264  and  _266
REMARK   95  A    between atoms: _266  and  _267
REMARK   96  A    between atoms: _270  and  _272
REMARK   97  A    between atoms: _272  and  _273
REMARK   98  A    between atoms: _272  and  _275
REMARK   99  A    between atoms: _275  and  _276
REMARK  100  A    between atoms: _279  and  _281
REMARK  101  A    between atoms: _281  and  _282
REMARK  102  A    between atoms: _281  and  _284
REMARK  103  A    between atoms: _284  and  _285
REMARK  104  A    between atoms: _290  and  _291
REMARK  105  A    between atoms: _293  and  _295
REMARK  106  A    between atoms: _295  and  _296
REMARK  107  A    between atoms: _295  and  _298
REMARK  108  A    between atoms: _301  and  _303
REMARK  109  A    between atoms: _303  and  _304
REMARK  110  A    between atoms: _303  and  _306
REMARK  111  A    between atoms: _306  and  _307
REMARK  112  A    between atoms: _307  and  _308
REMARK  113  A    between atoms: _313  and  _315
REMARK  114  A    between atoms: _315  and  _316
REMARK  115  A    between atoms: _315  and  _318
REMARK  116  A    between atoms: _318  and  _319
REMARK  117  A    between atoms: _322  and  _324
REMARK  118  A    between atoms: _324  and  _325
REMARK  119  A    between atoms: _324  and  _327
REMARK  120  A    between atoms: _330  and  _332
REMARK  121  A    between atoms: _332  and  _333
REMARK  122  A    between atoms: _335  and  _337
REMARK  123  A    between atoms: _337  and  _338
REMARK  124  A    between atoms: _337  and  _340
REMARK  125  A    between atoms: _340  and  _341
REMARK  126  A    between atoms: _344  and  _346
REMARK  127  A    between atoms: _346  and  _347
REMARK  128  A    between atoms: _346  and  _349
REMARK  129  A    between atoms: _349  and  _350
REMARK  130  A    between atoms: _353  and  _355
REMARK  131  A    between atoms: _355  and  _356
REMARK  132  A    between atoms: _355  and  _358
REMARK  133  A    between atoms: _358  and  _359
REMARK  134  A    between atoms: _359  and  _360
REMARK  135  A    between atoms: _360  and  _361
REMARK  136  A    between atoms: _370  and  _372
REMARK  137  A    between atoms: _372  and  _373
REMARK  138  A    between atoms: _372  and  _375
REMARK  139  A    between atoms: _375  and  _376
REMARK  140  A    between atoms: _379  and  _381
REMARK  141  A    between atoms: _381  and  _382
REMARK  142  A    between atoms: _381  and  _384
REMARK  143  A    between atoms: _384  and  _385
REMARK  144  A    between atoms: _388  and  _390
REMARK  145  A    between atoms: _390  and  _391
REMARK  146  A    between atoms: _394  and  _396
REMARK  147  A    between atoms: _396  and  _397
REMARK  148  A    between atoms: _396  and  _399
REMARK  149  A    between atoms: _399  and  _400
REMARK  150  A    between atoms: _402  and  _404
REMARK  151  A    between atoms: _404  and  _405
REMARK  152  A    between atoms: _404  and  _407
REMARK  153  A    between atoms: _407  and  _408
REMARK  154  A    between atoms: _408  and  _409
REMARK  155  A    between atoms: _409  and  _410
REMARK  156  A    between atoms: _410  and  _411
REMARK  157  A    between atoms: _415  and  _417
REMARK  158  A    between atoms: _417  and  _418
REMARK  159  A    between atoms: _417  and  _420
REMARK  160  A    between atoms: _420  and  _421
REMARK  161  A    between atoms: _426  and  _428
REMARK  162  A    between atoms: _428  and  _429
REMARK  163  A    between atoms: _428  and  _431
REMARK  164  A    between atoms: _431  and  _432
REMARK  165  A    between atoms: _432  and  _433
REMARK  166  A    between atoms: _436  and  _438
REMARK  167  A    between atoms: _438  and  _439
REMARK  168  A    between atoms: _438  and  _441
REMARK  169  A    between atoms: _444  and  _446
REMARK  170  A    between atoms: _446  and  _447
REMARK  171  A    between atoms: _446  and  _449
REMARK  172  A    between atoms: _449  and  _450
REMARK  173  A    between atoms: _453  and  _455
REMARK  174  A    between atoms: _455  and  _456
REMARK  175  A    between atoms: _455  and  _458
REMARK  176  A    between atoms: _458  and  _459
REMARK  177  A    between atoms: _462  and  _464
REMARK  178  A    between atoms: _464  and  _465
REMARK  179  A    between atoms: _464  and  _467
REMARK  180  A    between atoms: _467  and  _468
REMARK  181  A    between atoms: _471  and  _473
REMARK  182  A    between atoms: _473  and  _474
REMARK  183  A    between atoms: _476  and  _478
REMARK  184  A    between atoms: _478  and  _479
REMARK  185  A    between atoms: _478  and  _481
REMARK  186  A    between atoms: _481  and  _482
REMARK  187  A    between atoms: _482  and  _483
REMARK  188  A    between atoms: _486  and  _488
REMARK  189  A    between atoms: _488  and  _489
REMARK  190  A    between atoms: _488  and  _491
REMARK  191  A    between atoms: _491  and  _492
REMARK  192  A    between atoms: _495  and  _497
REMARK  193  A    between atoms: _497  and  _498
REMARK  194  A    between atoms: _497  and  _500
REMARK  195  A    between atoms: _500  and  _501
REMARK  196  A    between atoms: _507  and  _509
REMARK  197  A    between atoms: _509  and  _510
REMARK  198  A    between atoms: _509  and  _512
REMARK  199  A    between atoms: _512  and  _513
REMARK  200  A    between atoms: _518  and  _520
REMARK  201  A    between atoms: _520  and  _521
REMARK  202  A    between atoms: _520  and  _523
REMARK  203  A    between atoms: _523  and  _524
REMARK  204  A    between atoms: _529  and  _531
REMARK  205  A    between atoms: _531  and  _532
REMARK  206  A    between atoms: _531  and  _534
REMARK  207  A    between atoms: _534  and  _535
REMARK  208  A    between atoms: _538  and  _540
REMARK  209  A    between atoms: _540  and  _541
REMARK  210  A    between atoms: _540  and  _543
REMARK  211  A    between atoms: _543  and  _544
REMARK  212  A    between atoms: _549  and  _551
REMARK  213  A    between atoms: _551  and  _552
REMARK  214  A    between atoms: _551  and  _554
REMARK  215  A    between atoms: _554  and  _555
REMARK  216  A    between atoms: _555  and  _556
REMARK  217  A    between atoms: _556  and  _557
REMARK  218  A    between atoms: _566  and  _568
REMARK  219  A    between atoms: _568  and  _569
REMARK  220  A    between atoms: _571  and  _573
REMARK  221  A    between atoms: _573  and  _574
REMARK  222  A    between atoms: _573  and  _576
REMARK  223  A    between atoms: _576  and  _577
REMARK  224  A    between atoms: _582  and  _584
REMARK  225  A    between atoms: _584  and  _585
REMARK  226  A    between atoms: _587  and  _589
REMARK  227  A    between atoms: _589  and  _590
REMARK  228  A    between atoms: _593  and  _595
REMARK  229  A    between atoms: _595  and  _596
REMARK  230  A    between atoms: _598  and  _600
REMARK  231  A    between atoms: _600  and  _601
REMARK  232  A    between atoms: _600  and  _603
REMARK  233  A    between atoms: _603  and  _604
REMARK  234  A    between atoms: _604  and  _605
REMARK  235  A    between atoms: _605  and  _606
REMARK  236  A    between atoms: _615  and  _617
REMARK  237  A    between atoms: _617  and  _618
REMARK  238  A    between atoms: _617  and  _620
REMARK  239  A    between atoms: _620  and  _621
REMARK  240  A    between atoms: _624  and  _626
REMARK  241  A    between atoms: _626  and  _627
REMARK  242  A    between atoms: _626  and  _629
REMARK  243  A    between atoms: _629  and  _630
REMARK                            x       y       z     vdW  Elec       q    Type
REMARK                         _______ _______ _______ _____ _____    ______ ____
ROOT
ATOM      1  O   HOH     1      -2.090  40.119   6.652  0.00  0.00    +0.000 OA
ENDROOT
TORSDOF 0
REMARK  Name = ../refined-set-2016/1ppi/1ppi_pocket.pdb
REMARK  243 active torsions:
REMARK  status: ('A' for Active; 'I' for Inactive)
REMARK    1  A    between atoms: _1  and  _3
REMARK    2  A    between atoms: _3  and  _4
REMARK    3  A    between atoms: _3  and  _6
REMARK    4  A    between atoms: _6  and  _7
REMARK    5  A    between atoms: _12  and  _14
REMARK    6  A    between atoms: _14  and  _15
REMARK    7  A    between atoms: _14  and  _17
REMARK    8  A    between atoms: _17  and  _18
REMARK    9  A    between atoms: _24  and  _26
REMARK   10  A    between atoms: _26  and  _27
REMARK   11  A    between atoms: _26  and  _29
REMARK   12  A    between atoms: _29  and  _30
REMARK   13  A    between atoms: _30  and  _31
REMARK   14  A    between atoms: _37  and  _38
REMARK   15  A    between atoms: _43  and  _45
REMARK   16  A    between atoms: _45  and  _46
REMARK   17  A    between atoms: _45  and  _48
REMARK   18  A    between atoms: _48  and  _49
REMARK   19  A    between atoms: _54  and  _56
REMARK   20  A    between atoms: _56  and  _57
REMARK   21  A    between atoms: _56  and  _59
REMARK   22  A    between atoms: _62  and  _64
REMARK   23  A    between atoms: _64  and  _65
REMARK   24  A    between atoms: _64  and  _67
REMARK   25  A    between atoms: _71  and  _72
REMARK   26  A    between atoms: _78  and  _79
REMARK   27  A    between atoms: _84  and  _86
REMARK   28  A    between atoms: _86  and  _87
REMARK   29  A    between atoms: _86  and  _89
REMARK   30  A    between atoms: _89  and  _90
REMARK   31  A    between atoms: _100  and  _102
REMARK   32  A    between atoms: _102  and  _103
REMARK   33  A    between atoms: _102  and  _105
REMARK   34  A    between atoms: _105  and  _106
REMARK   35  A    between atoms: _116  and  _118
REMARK   36  A    between atoms: _118  and  _119
REMARK   37  A    between atoms: _118  and  _121
REMARK   38  A    between atoms: _121  and  _122
REMARK   39  A    between atoms: _122  and  _123
REMARK   40  A    between atoms: _126  and  _128
REMARK   41  A    between atoms: _128  and  _129
REMARK   42  A    between atoms: _128  and  _131
REMARK   43  A    between atoms: _131  and  _132
REMARK   44  A    between atoms: _132  and  _133
REMARK   45  A    between atoms: _133  and  _134
REMARK   46  A    between atoms: _143  and  _145
REMARK   47  A    between atoms: _145  and  _146
REMARK   48  A    between atoms: _145  and  _148
REMARK   49  A    between atoms: _148  and  _149
REMARK   50  A    between atoms: _154  and  _155
REMARK   51  A    between atoms: _157  and  _159
REMARK   52  A    between atoms: _159  and  _160
REMARK   53  A    between atoms: _159  and  _162
REMARK   54  A    between atoms: _162  and  _163
REMARK   55  A    between atoms: _163  and  _164
REMARK   56  A    between atoms: _170  and  _171
REMARK   57  A    between atoms: _176  and  _178
REMARK   58  A    between atoms: _178  and  _179
REMARK   59  A    between atoms: _178  and  _181
REMARK   60  A    between atoms: _181  and  _182
REMARK   61  A    between atoms: _185  and  _187
REMARK   62  A    between atoms: _187  and  _188
REMARK   63  A    between atoms: _191  and  _193
REMARK   64  A    between atoms: _193  and  _194
REMARK   65  A    between atoms: _193  and  _196
REMARK   66  A    between atoms: _199  and  _201
REMARK   67  A    between atoms: _201  and  _202
REMARK   68  A    between atoms: _201  and  _204
REMARK   69  A    between atoms: _204  and  _205
REMARK   70  A    between atoms: _208  and  _210
REMARK   71  A    between atoms: _210  and  _211
REMARK   72  A    between atoms: _210  and  _213
REMARK   73  A    between atoms: _213  and  _214
REMARK   74  A    between atoms: _219  and  _221
REMARK   75  A    between atoms: _221  and  _222
REMARK   76  A    between atoms: _221  and  _224
REMARK   77  A    between atoms: _224  and  _225
REMARK   78  A    between atoms: _230  and  _232
REMARK   79  A    between atoms: _232  and  _233
REMARK   80  A    between atoms: _232  and  _235
REMARK   81  A    between atoms: _235  and  _236
REMARK   82  A    between atoms: _236  and  _237
REMARK   83  A    between atoms: _239  and  _241
REMARK   84  A    between atoms: _241  and  _242
REMARK   85  A    between atoms: _241  and  _244
REMARK   86  A    between atoms: _246  and  _248
REMARK   87  A    between atoms: _248  and  _249
REMARK   88  A    between atoms: _251  and  _253
REMARK   89  A    between atoms: _253  and  _254
REMARK   90  A    between atoms: _253  and  _256
REMARK   91  A    between atoms: _256  and  _257
REMARK   92  A    between atoms: _259  and  _261
REMARK   93  A    between atoms: _261  and  _262
REMARK   94  A    between atoms: _264  and  _266
REMARK   95  A    between atoms: _266  and  _267
REMARK   96  A    between atoms: _270  and  _272
REMARK   97  A    between atoms: _272  and  _273
REMARK   98  A    between atoms: _272  and  _275
REMARK   99  A    between atoms: _275  and  _276
REMARK  100  A    between atoms: _279  and  _281
REMARK  101  A    between atoms: _281  and  _282
REMARK  102  A    between atoms: _281  and  _284
REMARK  103  A    between atoms: _284  and  _285
REMARK  104  A    between atoms: _290  and  _291
REMARK  105  A    between atoms: _293  and  _295
REMARK  106  A    between atoms: _295  and  _296
REMARK  107  A    between atoms: _295  and  _298
REMARK  108  A    between atoms: _301  and  _303
REMARK  109  A    between atoms: _303  and  _304
REMARK  110  A    between atoms: _303  and  _306
REMARK  111  A    between atoms: _306  and  _307
REMARK  112  A    between atoms: _307  and  _308
REMARK  113  A    between atoms: _313  and  _315
REMARK  114  A    between atoms: _315  and  _316
REMARK  115  A    between atoms: _315  and  _318
REMARK  116  A    between atoms: _318  and  _319
REMARK  117  A    between atoms: _322  and  _324
REMARK  118  A    between atoms: _324  and  _325
REMARK  119  A    between atoms: _324  and  _327
REMARK  120  A    between atoms: _330  and  _332
REMARK  121  A    between atoms: _332  and  _333
REMARK  122  A    between atoms: _335  and  _337
REMARK  123  A    between atoms: _337  and  _338
REMARK  124  A    between atoms: _337  and  _340
REMARK  125  A    between atoms: _340  and  _341
REMARK  126  A    between atoms: _344  and  _346
REMARK  127  A    between atoms: _346  and  _347
REMARK  128  A    between atoms: _346  and  _349
REMARK  129  A    between atoms: _349  and  _350
REMARK  130  A    between atoms: _353  and  _355
REMARK  131  A    between atoms: _355  and  _356
REMARK  132  A    between atoms: _355  and  _358
REMARK  133  A    between atoms: _358  and  _359
REMARK  134  A    between atoms: _359  and  _360
REMARK  135  A    between atoms: _360  and  _361
REMARK  136  A    between atoms: _370  and  _372
REMARK  137  A    between atoms: _372  and  _373
REMARK  138  A    between atoms: _372  and  _375
REMARK  139  A    between atoms: _375  and  _376
REMARK  140  A    between atoms: _379  and  _381
REMARK  141  A    between atoms: _381  and  _382
REMARK  142  A    between atoms: _381  and  _384
REMARK  143  A    between atoms: _384  and  _385
REMARK  144  A    between atoms: _388  and  _390
REMARK  145  A    between atoms: _390  and  _391
REMARK  146  A    between atoms: _394  and  _396
REMARK  147  A    between atoms: _396  and  _397
REMARK  148  A    between atoms: _396  and  _399
REMARK  149  A    between atoms: _399  and  _400
REMARK  150  A    between atoms: _402  and  _404
REMARK  151  A    between atoms: _404  and  _405
REMARK  152  A    between atoms: _404  and  _407
REMARK  153  A    between atoms: _407  and  _408
REMARK  154  A    between atoms: _408  and  _409
REMARK  155  A    between atoms: _409  and  _410
REMARK  156  A    between atoms: _410  and  _411
REMARK  157  A    between atoms: _415  and  _417
REMARK  158  A    between atoms: _417  and  _418
REMARK  159  A    between atoms: _417  and  _420
REMARK  160  A    between atoms: _420  and  _421
REMARK  161  A    between atoms: _426  and  _428
REMARK  162  A    between atoms: _428  and  _429
REMARK  163  A    between atoms: _428  and  _431
REMARK  164  A    between atoms: _431  and  _432
REMARK  165  A    between atoms: _432  and  _433
REMARK  166  A    between atoms: _436  and  _438
REMARK  167  A    between atoms: _438  and  _439
REMARK  168  A    between atoms: _438  and  _441
REMARK  169  A    between atoms: _444  and  _446
REMARK  170  A    between atoms: _446  and  _447
REMARK  171  A    between atoms: _446  and  _449
REMARK  172  A    between atoms: _449  and  _450
REMARK  173  A    between atoms: _453  and  _455
REMARK  174  A    between atoms: _455  and  _456
REMARK  175  A    between atoms: _455  and  _458
REMARK  176  A    between atoms: _458  and  _459
REMARK  177  A    between atoms: _462  and  _464
REMARK  178  A    between atoms: _464  and  _465
REMARK  179  A    between atoms: _464  and  _467
REMARK  180  A    between atoms: _467  and  _468
REMARK  181  A    between atoms: _471  and  _473
REMARK  182  A    between atoms: _473  and  _474
REMARK  183  A    between atoms: _476  and  _478
REMARK  184  A    between atoms: _478  and  _479
REMARK  185  A    between atoms: _478  and  _481
REMARK  186  A    between atoms: _481  and  _482
REMARK  187  A    between atoms: _482  and  _483
REMARK  188  A    between atoms: _486  and  _488
REMARK  189  A    between atoms: _488  and  _489
REMARK  190  A    between atoms: _488  and  _491
REMARK  191  A    between atoms: _491  and  _492
REMARK  192  A    between atoms: _495  and  _497
REMARK  193  A    between atoms: _497  and  _498
REMARK  194  A    between atoms: _497  and  _500
REMARK  195  A    between atoms: _500  and  _501
REMARK  196  A    between atoms: _507  and  _509
REMARK  197  A    between atoms: _509  and  _510
REMARK  198  A    between atoms: _509  and  _512
REMARK  199  A    between atoms: _512  and  _513
REMARK  200  A    between atoms: _518  and  _520
REMARK  201  A    between atoms: _520  and  _521
REMARK  202  A    between atoms: _520  and  _523
REMARK  203  A    between atoms: _523  and  _524
REMARK  204  A    between atoms: _529  and  _531
REMARK  205  A    between atoms: _531  and  _532
REMARK  206  A    between atoms: _531  and  _534
REMARK  207  A    between atoms: _534  and  _535
REMARK  208  A    between atoms: _538  and  _540
REMARK  209  A    between atoms: _540  and  _541
REMARK  210  A    between atoms: _540  and  _543
REMARK  211  A    between atoms: _543  and  _544
REMARK  212  A    between atoms: _549  and  _551
REMARK  213  A    between atoms: _551  and  _552
REMARK  214  A    between atoms: _551  and  _554
REMARK  215  A    between atoms: _554  and  _555
REMARK  216  A    between atoms: _555  and  _556
REMARK  217  A    between atoms: _556  and  _557
REMARK  218  A    between atoms: _566  and  _568
REMARK  219  A    between atoms: _568  and  _569
REMARK  220  A    between atoms: _571  and  _573
REMARK  221  A    between atoms: _573  and  _574
REMARK  222  A    between atoms: _573  and  _576
REMARK  223  A    between atoms: _576  and  _577
REMARK  224  A    between atoms: _582  and  _584
REMARK  225  A    between atoms: _584  and  _585
REMARK  226  A    between atoms: _587  and  _589
REMARK  227  A    between atoms: _589  and  _590
REMARK  228  A    between atoms: _593  and  _595
REMARK  229  A    between atoms: _595  and  _596
REMARK  230  A    between atoms: _598  and  _600
REMARK  231  A    between atoms: _600  and  _601
REMARK  232  A    between atoms: _600  and  _603
REMARK  233  A    between atoms: _603  and  _604
REMARK  234  A    between atoms: _604  and  _605
REMARK  235  A    between atoms: _605  and  _606
REMARK  236  A    between atoms: _615  and  _617
REMARK  237  A    between atoms: _617  and  _618
REMARK  238  A    between atoms: _617  and  _620
REMARK  239  A    between atoms: _620  and  _621
REMARK  240  A    between atoms: _624  and  _626
REMARK  241  A    between atoms: _626  and  _627
REMARK  242  A    between atoms: _626  and  _629
REMARK  243  A    between atoms: _629  and  _630
REMARK                            x       y       z     vdW  Elec       q    Type
REMARK                         _______ _______ _______ _____ _____    ______ ____
ROOT
ATOM      1  O   HOH     1     -10.887  42.918  28.195  0.00  0.00    +0.000 OA
ENDROOT
TORSDOF 0
REMARK  Name = ../refined-set-2016/1ppi/1ppi_pocket.pdb
REMARK  243 active torsions:
REMARK  status: ('A' for Active; 'I' for Inactive)
REMARK    1  A    between atoms: _1  and  _3
REMARK    2  A    between atoms: _3  and  _4
REMARK    3  A    between atoms: _3  and  _6
REMARK    4  A    between atoms: _6  and  _7
REMARK    5  A    between atoms: _12  and  _14
REMARK    6  A    between atoms: _14  and  _15
REMARK    7  A    between atoms: _14  and  _17
REMARK    8  A    between atoms: _17  and  _18
REMARK    9  A    between atoms: _24  and  _26
REMARK   10  A    between atoms: _26  and  _27
REMARK   11  A    between atoms: _26  and  _29
REMARK   12  A    between atoms: _29  and  _30
REMARK   13  A    between atoms: _30  and  _31
REMARK   14  A    between atoms: _37  and  _38
REMARK   15  A    between atoms: _43  and  _45
REMARK   16  A    between atoms: _45  and  _46
REMARK   17  A    between atoms: _45  and  _48
REMARK   18  A    between atoms: _48  and  _49
REMARK   19  A    between atoms: _54  and  _56
REMARK   20  A    between atoms: _56  and  _57
REMARK   21  A    between atoms: _56  and  _59
REMARK   22  A    between atoms: _62  and  _64
REMARK   23  A    between atoms: _64  and  _65
REMARK   24  A    between atoms: _64  and  _67
REMARK   25  A    between atoms: _71  and  _72
REMARK   26  A    between atoms: _78  and  _79
REMARK   27  A    between atoms: _84  and  _86
REMARK   28  A    between atoms: _86  and  _87
REMARK   29  A    between atoms: _86  and  _89
REMARK   30  A    between atoms: _89  and  _90
REMARK   31  A    between atoms: _100  and  _102
REMARK   32  A    between atoms: _102  and  _103
REMARK   33  A    between atoms: _102  and  _105
REMARK   34  A    between atoms: _105  and  _106
REMARK   35  A    between atoms: _116  and  _118
REMARK   36  A    between atoms: _118  and  _119
REMARK   37  A    between atoms: _118  and  _121
REMARK   38  A    between atoms: _121  and  _122
REMARK   39  A    between atoms: _122  and  _123
REMARK   40  A    between atoms: _126  and  _128
REMARK   41  A    between atoms: _128  and  _129
REMARK   42  A    between atoms: _128  and  _131
REMARK   43  A    between atoms: _131  and  _132
REMARK   44  A    between atoms: _132  and  _133
REMARK   45  A    between atoms: _133  and  _134
REMARK   46  A    between atoms: _143  and  _145
REMARK   47  A    between atoms: _145  and  _146
REMARK   48  A    between atoms: _145  and  _148
REMARK   49  A    between atoms: _148  and  _149
REMARK   50  A    between atoms: _154  and  _155
REMARK   51  A    between atoms: _157  and  _159
REMARK   52  A    between atoms: _159  and  _160
REMARK   53  A    between atoms: _159  and  _162
REMARK   54  A    between atoms: _162  and  _163
REMARK   55  A    between atoms: _163  and  _164
REMARK   56  A    between atoms: _170  and  _171
REMARK   57  A    between atoms: _176  and  _178
REMARK   58  A    between atoms: _178  and  _179
REMARK   59  A    between atoms: _178  and  _181
REMARK   60  A    between atoms: _181  and  _182
REMARK   61  A    between atoms: _185  and  _187
REMARK   62  A    between atoms: _187  and  _188
REMARK   63  A    between atoms: _191  and  _193
REMARK   64  A    between atoms: _193  and  _194
REMARK   65  A    between atoms: _193  and  _196
REMARK   66  A    between atoms: _199  and  _201
REMARK   67  A    between atoms: _201  and  _202
REMARK   68  A    between atoms: _201  and  _204
REMARK   69  A    between atoms: _204  and  _205
REMARK   70  A    between atoms: _208  and  _210
REMARK   71  A    between atoms: _210  and  _211
REMARK   72  A    between atoms: _210  and  _213
REMARK   73  A    between atoms: _213  and  _214
REMARK   74  A    between atoms: _219  and  _221
REMARK   75  A    between atoms: _221  and  _222
REMARK   76  A    between atoms: _221  and  _224
REMARK   77  A    between atoms: _224  and  _225
REMARK   78  A    between atoms: _230  and  _232
REMARK   79  A    between atoms: _232  and  _233
REMARK   80  A    between atoms: _232  and  _235
REMARK   81  A    between atoms: _235  and  _236
REMARK   82  A    between atoms: _236  and  _237
REMARK   83  A    between atoms: _239  and  _241
REMARK   84  A    between atoms: _241  and  _242
REMARK   85  A    between atoms: _241  and  _244
REMARK   86  A    between atoms: _246  and  _248
REMARK   87  A    between atoms: _248  and  _249
REMARK   88  A    between atoms: _251  and  _253
REMARK   89  A    between atoms: _253  and  _254
REMARK   90  A    between atoms: _253  and  _256
REMARK   91  A    between atoms: _256  and  _257
REMARK   92  A    between atoms: _259  and  _261
REMARK   93  A    between atoms: _261  and  _262
REMARK   94  A    between atoms: _264  and  _266
REMARK   95  A    between atoms: _266  and  _267
REMARK   96  A    between atoms: _270  and  _272
REMARK   97  A    between atoms: _272  and  _273
REMARK   98  A    between atoms: _272  and  _275
REMARK   99  A    between atoms: _275  and  _276
REMARK  100  A    between atoms: _279  and  _281
REMARK  101  A    between atoms: _281  and  _282
REMARK  102  A    between atoms: _281  and  _284
REMARK  103  A    between atoms: _284  and  _285
REMARK  104  A    between atoms: _290  and  _291
REMARK  105  A    between atoms: _293  and  _295
REMARK  106  A    between atoms: _295  and  _296
REMARK  107  A    between atoms: _295  and  _298
REMARK  108  A    between atoms: _301  and  _303
REMARK  109  A    between atoms: _303  and  _304
REMARK  110  A    between atoms: _303  and  _306
REMARK  111  A    between atoms: _306  and  _307
REMARK  112  A    between atoms: _307  and  _308
REMARK  113  A    between atoms: _313  and  _315
REMARK  114  A    between atoms: _315  and  _316
REMARK  115  A    between atoms: _315  and  _318
REMARK  116  A    between atoms: _318  and  _319
REMARK  117  A    between atoms: _322  and  _324
REMARK  118  A    between atoms: _324  and  _325
REMARK  119  A    between atoms: _324  and  _327
REMARK  120  A    between atoms: _330  and  _332
REMARK  121  A    between atoms: _332  and  _333
REMARK  122  A    between atoms: _335  and  _337
REMARK  123  A    between atoms: _337  and  _338
REMARK  124  A    between atoms: _337  and  _340
REMARK  125  A    between atoms: _340  and  _341
REMARK  126  A    between atoms: _344  and  _346
REMARK  127  A    between atoms: _346  and  _347
REMARK  128  A    between atoms: _346  and  _349
REMARK  129  A    between atoms: _349  and  _350
REMARK  130  A    between atoms: _353  and  _355
REMARK  131  A    between atoms: _355  and  _356
REMARK  132  A    between atoms: _355  and  _358
REMARK  133  A    between atoms: _358  and  _359
REMARK  134  A    between atoms: _359  and  _360
REMARK  135  A    between atoms: _360  and  _361
REMARK  136  A    between atoms: _370  and  _372
REMARK  137  A    between atoms: _372  and  _373
REMARK  138  A    between atoms: _372  and  _375
REMARK  139  A    between atoms: _375  and  _376
REMARK  140  A    between atoms: _379  and  _381
REMARK  141  A    between atoms: _381  and  _382
REMARK  142  A    between atoms: _381  and  _384
REMARK  143  A    between atoms: _384  and  _385
REMARK  144  A    between atoms: _388  and  _390
REMARK  145  A    between atoms: _390  and  _391
REMARK  146  A    between atoms: _394  and  _396
REMARK  147  A    between atoms: _396  and  _397
REMARK  148  A    between atoms: _396  and  _399
REMARK  149  A    between atoms: _399  and  _400
REMARK  150  A    between atoms: _402  and  _404
REMARK  151  A    between atoms: _404  and  _405
REMARK  152  A    between atoms: _404  and  _407
REMARK  153  A    between atoms: _407  and  _408
REMARK  154  A    between atoms: _408  and  _409
REMARK  155  A    between atoms: _409  and  _410
REMARK  156  A    between atoms: _410  and  _411
REMARK  157  A    between atoms: _415  and  _417
REMARK  158  A    between atoms: _417  and  _418
REMARK  159  A    between atoms: _417  and  _420
REMARK  160  A    between atoms: _420  and  _421
REMARK  161  A    between atoms: _426  and  _428
REMARK  162  A    between atoms: _428  and  _429
REMARK  163  A    between atoms: _428  and  _431
REMARK  164  A    between atoms: _431  and  _432
REMARK  165  A    between atoms: _432  and  _433
REMARK  166  A    between atoms: _436  and  _438
REMARK  167  A    between atoms: _438  and  _439
REMARK  168  A    between atoms: _438  and  _441
REMARK  169  A    between atoms: _444  and  _446
REMARK  170  A    between atoms: _446  and  _447
REMARK  171  A    between atoms: _446  and  _449
REMARK  172  A    between atoms: _449  and  _450
REMARK  173  A    between atoms: _453  and  _455
REMARK  174  A    between atoms: _455  and  _456
REMARK  175  A    between atoms: _455  and  _458
REMARK  176  A    between atoms: _458  and  _459
REMARK  177  A    between atoms: _462  and  _464
REMARK  178  A    between atoms: _464  and  _465
REMARK  179  A    between atoms: _464  and  _467
REMARK  180  A    between atoms: _467  and  _468
REMARK  181  A    between atoms: _471  and  _473
REMARK  182  A    between atoms: _473  and  _474
REMARK  183  A    between atoms: _476  and  _478
REMARK  184  A    between atoms: _478  and  _479
REMARK  185  A    between atoms: _478  and  _481
REMARK  186  A    between atoms: _481  and  _482
REMARK  187  A    between atoms: _482  and  _483
REMARK  188  A    between atoms: _486  and  _488
REMARK  189  A    between atoms: _488  and  _489
REMARK  190  A    between atoms: _488  and  _491
REMARK  191  A    between atoms: _491  and  _492
REMARK  192  A    between atoms: _495  and  _497
REMARK  193  A    between atoms: _497  and  _498
REMARK  194  A    between atoms: _497  and  _500
REMARK  195  A    between atoms: _500  and  _501
REMARK  196  A    between atoms: _507  and  _509
REMARK  197  A    between atoms: _509  and  _510
REMARK  198  A    between atoms: _509  and  _512
REMARK  199  A    between atoms: _512  and  _513
REMARK  200  A    between atoms: _518  and  _520
REMARK  201  A    between atoms: _520  and  _521
REMARK  202  A    between atoms: _520  and  _523
REMARK  203  A    between atoms: _523  and  _524
REMARK  204  A    between atoms: _529  and  _531
REMARK  205  A    between atoms: _531  and  _532
REMARK  206  A    between atoms: _531  and  _534
REMARK  207  A    between atoms: _534  and  _535
REMARK  208  A    between atoms: _538  and  _540
REMARK  209  A    between atoms: _540  and  _541
REMARK  210  A    between atoms: _540  and  _543
REMARK  211  A    between atoms: _543  and  _544
REMARK  212  A    between atoms: _549  and  _551
REMARK  213  A    between atoms: _551  and  _552
REMARK  214  A    between atoms: _551  and  _554
REMARK  215  A    between atoms: _554  and  _555
REMARK  216  A    between atoms: _555  and  _556
REMARK  217  A    between atoms: _556  and  _557
REMARK  218  A    between atoms: _566  and  _568
REMARK  219  A    between atoms: _568  and  _569
REMARK  220  A    between atoms: _571  and  _573
REMARK  221  A    between atoms: _573  and  _574
REMARK  222  A    between atoms: _573  and  _576
REMARK  223  A    between atoms: _576  and  _577
REMARK  224  A    between atoms: _582  and  _584
REMARK  225  A    between atoms: _584  and  _585
REMARK  226  A    between atoms: _587  and  _589
REMARK  227  A    between atoms: _589  and  _590
REMARK  228  A    between atoms: _593  and  _595
REMARK  229  A    between atoms: _595  and  _596
REMARK  230  A    between atoms: _598  and  _600
REMARK  231  A    between atoms: _600  and  _601
REMARK  232  A    between atoms: _600  and  _603
REMARK  233  A    between atoms: _603  and  _604
REMARK  234  A    between atoms: _604  and  _605
REMARK  235  A    between atoms: _605  and  _606
REMARK  236  A    between atoms: _615  and  _617
REMARK  237  A    between atoms: _617  and  _618
REMARK  238  A    between atoms: _617  and  _620
REMARK  239  A    between atoms: _620  and  _621
REMARK  240  A    between atoms: _624  and  _626
REMARK  241  A    between atoms: _626  and  _627
REMARK  242  A    between atoms: _626  and  _629
REMARK  243  A    between atoms: _629  and  _630
REMARK                            x       y       z     vdW  Elec       q    Type
REMARK                         _______ _______ _______ _____ _____    ______ ____
ROOT
ATOM      1  O   HOH     1      -6.462  37.441  18.670  0.00  0.00    +0.000 OA
ENDROOT
TORSDOF 0
REMARK  Name = ../refined-set-2016/1ppi/1ppi_pocket.pdb
REMARK  243 active torsions:
REMARK  status: ('A' for Active; 'I' for Inactive)
REMARK    1  A    between atoms: _1  and  _3
REMARK    2  A    between atoms: _3  and  _4
REMARK    3  A    between atoms: _3  and  _6
REMARK    4  A    between atoms: _6  and  _7
REMARK    5  A    between atoms: _12  and  _14
REMARK    6  A    between atoms: _14  and  _15
REMARK    7  A    between atoms: _14  and  _17
REMARK    8  A    between atoms: _17  and  _18
REMARK    9  A    between atoms: _24  and  _26
REMARK   10  A    between atoms: _26  and  _27
REMARK   11  A    between atoms: _26  and  _29
REMARK   12  A    between atoms: _29  and  _30
REMARK   13  A    between atoms: _30  and  _31
REMARK   14  A    between atoms: _37  and  _38
REMARK   15  A    between atoms: _43  and  _45
REMARK   16  A    between atoms: _45  and  _46
REMARK   17  A    between atoms: _45  and  _48
REMARK   18  A    between atoms: _48  and  _49
REMARK   19  A    between atoms: _54  and  _56
REMARK   20  A    between atoms: _56  and  _57
REMARK   21  A    between atoms: _56  and  _59
REMARK   22  A    between atoms: _62  and  _64
REMARK   23  A    between atoms: _64  and  _65
REMARK   24  A    between atoms: _64  and  _67
REMARK   25  A    between atoms: _71  and  _72
REMARK   26  A    between atoms: _78  and  _79
REMARK   27  A    between atoms: _84  and  _86
REMARK   28  A    between atoms: _86  and  _87
REMARK   29  A    between atoms: _86  and  _89
REMARK   30  A    between atoms: _89  and  _90
REMARK   31  A    between atoms: _100  and  _102
REMARK   32  A    between atoms: _102  and  _103
REMARK   33  A    between atoms: _102  and  _105
REMARK   34  A    between atoms: _105  and  _106
REMARK   35  A    between atoms: _116  and  _118
REMARK   36  A    between atoms: _118  and  _119
REMARK   37  A    between atoms: _118  and  _121
REMARK   38  A    between atoms: _121  and  _122
REMARK   39  A    between atoms: _122  and  _123
REMARK   40  A    between atoms: _126  and  _128
REMARK   41  A    between atoms: _128  and  _129
REMARK   42  A    between atoms: _128  and  _131
REMARK   43  A    between atoms: _131  and  _132
REMARK   44  A    between atoms: _132  and  _133
REMARK   45  A    between atoms: _133  and  _134
REMARK   46  A    between atoms: _143  and  _145
REMARK   47  A    between atoms: _145  and  _146
REMARK   48  A    between atoms: _145  and  _148
REMARK   49  A    between atoms: _148  and  _149
REMARK   50  A    between atoms: _154  and  _155
REMARK   51  A    between atoms: _157  and  _159
REMARK   52  A    between atoms: _159  and  _160
REMARK   53  A    between atoms: _159  and  _162
REMARK   54  A    between atoms: _162  and  _163
REMARK   55  A    between atoms: _163  and  _164
REMARK   56  A    between atoms: _170  and  _171
REMARK   57  A    between atoms: _176  and  _178
REMARK   58  A    between atoms: _178  and  _179
REMARK   59  A    between atoms: _178  and  _181
REMARK   60  A    between atoms: _181  and  _182
REMARK   61  A    between atoms: _185  and  _187
REMARK   62  A    between atoms: _187  and  _188
REMARK   63  A    between atoms: _191  and  _193
REMARK   64  A    between atoms: _193  and  _194
REMARK   65  A    between atoms: _193  and  _196
REMARK   66  A    between atoms: _199  and  _201
REMARK   67  A    between atoms: _201  and  _202
REMARK   68  A    between atoms: _201  and  _204
REMARK   69  A    between atoms: _204  and  _205
REMARK   70  A    between atoms: _208  and  _210
REMARK   71  A    between atoms: _210  and  _211
REMARK   72  A    between atoms: _210  and  _213
REMARK   73  A    between atoms: _213  and  _214
REMARK   74  A    between atoms: _219  and  _221
REMARK   75  A    between atoms: _221  and  _222
REMARK   76  A    between atoms: _221  and  _224
REMARK   77  A    between atoms: _224  and  _225
REMARK   78  A    between atoms: _230  and  _232
REMARK   79  A    between atoms: _232  and  _233
REMARK   80  A    between atoms: _232  and  _235
REMARK   81  A    between atoms: _235  and  _236
REMARK   82  A    between atoms: _236  and  _237
REMARK   83  A    between atoms: _239  and  _241
REMARK   84  A    between atoms: _241  and  _242
REMARK   85  A    between atoms: _241  and  _244
REMARK   86  A    between atoms: _246  and  _248
REMARK   87  A    between atoms: _248  and  _249
REMARK   88  A    between atoms: _251  and  _253
REMARK   89  A    between atoms: _253  and  _254
REMARK   90  A    between atoms: _253  and  _256
REMARK   91  A    between atoms: _256  and  _257
REMARK   92  A    between atoms: _259  and  _261
REMARK   93  A    between atoms: _261  and  _262
REMARK   94  A    between atoms: _264  and  _266
REMARK   95  A    between atoms: _266  and  _267
REMARK   96  A    between atoms: _270  and  _272
REMARK   97  A    between atoms: _272  and  _273
REMARK   98  A    between atoms: _272  and  _275
REMARK   99  A    between atoms: _275  and  _276
REMARK  100  A    between atoms: _279  and  _281
REMARK  101  A    between atoms: _281  and  _282
REMARK  102  A    between atoms: _281  and  _284
REMARK  103  A    between atoms: _284  and  _285
REMARK  104  A    between atoms: _290  and  _291
REMARK  105  A    between atoms: _293  and  _295
REMARK  106  A    between atoms: _295  and  _296
REMARK  107  A    between atoms: _295  and  _298
REMARK  108  A    between atoms: _301  and  _303
REMARK  109  A    between atoms: _303  and  _304
REMARK  110  A    between atoms: _303  and  _306
REMARK  111  A    between atoms: _306  and  _307
REMARK  112  A    between atoms: _307  and  _308
REMARK  113  A    between atoms: _313  and  _315
REMARK  114  A    between atoms: _315  and  _316
REMARK  115  A    between atoms: _315  and  _318
REMARK  116  A    between atoms: _318  and  _319
REMARK  117  A    between atoms: _322  and  _324
REMARK  118  A    between atoms: _324  and  _325
REMARK  119  A    between atoms: _324  and  _327
REMARK  120  A    between atoms: _330  and  _332
REMARK  121  A    between atoms: _332  and  _333
REMARK  122  A    between atoms: _335  and  _337
REMARK  123  A    between atoms: _337  and  _338
REMARK  124  A    between atoms: _337  and  _340
REMARK  125  A    between atoms: _340  and  _341
REMARK  126  A    between atoms: _344  and  _346
REMARK  127  A    between atoms: _346  and  _347
REMARK  128  A    between atoms: _346  and  _349
REMARK  129  A    between atoms: _349  and  _350
REMARK  130  A    between atoms: _353  and  _355
REMARK  131  A    between atoms: _355  and  _356
REMARK  132  A    between atoms: _355  and  _358
REMARK  133  A    between atoms: _358  and  _359
REMARK  134  A    between atoms: _359  and  _360
REMARK  135  A    between atoms: _360  and  _361
REMARK  136  A    between atoms: _370  and  _372
REMARK  137  A    between atoms: _372  and  _373
REMARK  138  A    between atoms: _372  and  _375
REMARK  139  A    between atoms: _375  and  _376
REMARK  140  A    between atoms: _379  and  _381
REMARK  141  A    between atoms: _381  and  _382
REMARK  142  A    between atoms: _381  and  _384
REMARK  143  A    between atoms: _384  and  _385
REMARK  144  A    between atoms: _388  and  _390
REMARK  145  A    between atoms: _390  and  _391
REMARK  146  A    between atoms: _394  and  _396
REMARK  147  A    between atoms: _396  and  _397
REMARK  148  A    between atoms: _396  and  _399
REMARK  149  A    between atoms: _399  and  _400
REMARK  150  A    between atoms: _402  and  _404
REMARK  151  A    between atoms: _404  and  _405
REMARK  152  A    between atoms: _404  and  _407
REMARK  153  A    between atoms: _407  and  _408
REMARK  154  A    between atoms: _408  and  _409
REMARK  155  A    between atoms: _409  and  _410
REMARK  156  A    between atoms: _410  and  _411
REMARK  157  A    between atoms: _415  and  _417
REMARK  158  A    between atoms: _417  and  _418
REMARK  159  A    between atoms: _417  and  _420
REMARK  160  A    between atoms: _420  and  _421
REMARK  161  A    between atoms: _426  and  _428
REMARK  162  A    between atoms: _428  and  _429
REMARK  163  A    between atoms: _428  and  _431
REMARK  164  A    between atoms: _431  and  _432
REMARK  165  A    between atoms: _432  and  _433
REMARK  166  A    between atoms: _436  and  _438
REMARK  167  A    between atoms: _438  and  _439
REMARK  168  A    between atoms: _438  and  _441
REMARK  169  A    between atoms: _444  and  _446
REMARK  170  A    between atoms: _446  and  _447
REMARK  171  A    between atoms: _446  and  _449
REMARK  172  A    between atoms: _449  and  _450
REMARK  173  A    between atoms: _453  and  _455
REMARK  174  A    between atoms: _455  and  _456
REMARK  175  A    between atoms: _455  and  _458
REMARK  176  A    between atoms: _458  and  _459
REMARK  177  A    between atoms: _462  and  _464
REMARK  178  A    between atoms: _464  and  _465
REMARK  179  A    between atoms: _464  and  _467
REMARK  180  A    between atoms: _467  and  _468
REMARK  181  A    between atoms: _471  and  _473
REMARK  182  A    between atoms: _473  and  _474
REMARK  183  A    between atoms: _476  and  _478
REMARK  184  A    between atoms: _478  and  _479
REMARK  185  A    between atoms: _478  and  _481
REMARK  186  A    between atoms: _481  and  _482
REMARK  187  A    between atoms: _482  and  _483
REMARK  188  A    between atoms: _486  and  _488
REMARK  189  A    between atoms: _488  and  _489
REMARK  190  A    between atoms: _488  and  _491
REMARK  191  A    between atoms: _491  and  _492
REMARK  192  A    between atoms: _495  and  _497
REMARK  193  A    between atoms: _497  and  _498
REMARK  194  A    between atoms: _497  and  _500
REMARK  195  A    between atoms: _500  and  _501
REMARK  196  A    between atoms: _507  and  _509
REMARK  197  A    between atoms: _509  and  _510
REMARK  198  A    between atoms: _509  and  _512
REMARK  199  A    between atoms: _512  and  _513
REMARK  200  A    between atoms: _518  and  _520
REMARK  201  A    between atoms: _520  and  _521
REMARK  202  A    between atoms: _520  and  _523
REMARK  203  A    between atoms: _523  and  _524
REMARK  204  A    between atoms: _529  and  _531
REMARK  205  A    between atoms: _531  and  _532
REMARK  206  A    between atoms: _531  and  _534
REMARK  207  A    between atoms: _534  and  _535
REMARK  208  A    between atoms: _538  and  _540
REMARK  209  A    between atoms: _540  and  _541
REMARK  210  A    between atoms: _540  and  _543
REMARK  211  A    between atoms: _543  and  _544
REMARK  212  A    between atoms: _549  and  _551
REMARK  213  A    between atoms: _551  and  _552
REMARK  214  A    between atoms: _551  and  _554
REMARK  215  A    between atoms: _554  and  _555
REMARK  216  A    between atoms: _555  and  _556
REMARK  217  A    between atoms: _556  and  _557
REMARK  218  A    between atoms: _566  and  _568
REMARK  219  A    between atoms: _568  and  _569
REMARK  220  A    between atoms: _571  and  _573
REMARK  221  A    between atoms: _573  and  _574
REMARK  222  A    between atoms: _573  and  _576
REMARK  223  A    between atoms: _576  and  _577
REMARK  224  A    between atoms: _582  and  _584
REMARK  225  A    between atoms: _584  and  _585
REMARK  226  A    between atoms: _587  and  _589
REMARK  227  A    between atoms: _589  and  _590
REMARK  228  A    between atoms: _593  and  _595
REMARK  229  A    between atoms: _595  and  _596
REMARK  230  A    between atoms: _598  and  _600
REMARK  231  A    between atoms: _600  and  _601
REMARK  232  A    between atoms: _600  and  _603
REMARK  233  A    between atoms: _603  and  _604
REMARK  234  A    between atoms: _604  and  _605
REMARK  235  A    between atoms: _605  and  _606
REMARK  236  A    between atoms: _615  and  _617
REMARK  237  A    between atoms: _617  and  _618
REMARK  238  A    between atoms: _617  and  _620
REMARK  239  A    between atoms: _620  and  _621
REMARK  240  A    between atoms: _624  and  _626
REMARK  241  A    between atoms: _626  and  _627
REMARK  242  A    between atoms: _626  and  _629
REMARK  243  A    between atoms: _629  and  _630
REMARK                            x       y       z     vdW  Elec       q    Type
REMARK                         _______ _______ _______ _____ _____    ______ ____
ROOT
ATOM      1  O   HOH     1      -4.355  44.580   2.600  0.00  0.00    +0.000 OA
ENDROOT
TORSDOF 0
REMARK  Name = ../refined-set-2016/1ppi/1ppi_pocket.pdb
REMARK  243 active torsions:
REMARK  status: ('A' for Active; 'I' for Inactive)
REMARK    1  A    between atoms: _1  and  _3
REMARK    2  A    between atoms: _3  and  _4
REMARK    3  A    between atoms: _3  and  _6
REMARK    4  A    between atoms: _6  and  _7
REMARK    5  A    between atoms: _12  and  _14
REMARK    6  A    between atoms: _14  and  _15
REMARK    7  A    between atoms: _14  and  _17
REMARK    8  A    between atoms: _17  and  _18
REMARK    9  A    between atoms: _24  and  _26
REMARK   10  A    between atoms: _26  and  _27
REMARK   11  A    between atoms: _26  and  _29
REMARK   12  A    between atoms: _29  and  _30
REMARK   13  A    between atoms: _30  and  _31
REMARK   14  A    between atoms: _37  and  _38
REMARK   15  A    between atoms: _43  and  _45
REMARK   16  A    between atoms: _45  and  _46
REMARK   17  A    between atoms: _45  and  _48
REMARK   18  A    between atoms: _48  and  _49
REMARK   19  A    between atoms: _54  and  _56
REMARK   20  A    between atoms: _56  and  _57
REMARK   21  A    between atoms: _56  and  _59
REMARK   22  A    between atoms: _62  and  _64
REMARK   23  A    between atoms: _64  and  _65
REMARK   24  A    between atoms: _64  and  _67
REMARK   25  A    between atoms: _71  and  _72
REMARK   26  A    between atoms: _78  and  _79
REMARK   27  A    between atoms: _84  and  _86
REMARK   28  A    between atoms: _86  and  _87
REMARK   29  A    between atoms: _86  and  _89
REMARK   30  A    between atoms: _89  and  _90
REMARK   31  A    between atoms: _100  and  _102
REMARK   32  A    between atoms: _102  and  _103
REMARK   33  A    between atoms: _102  and  _105
REMARK   34  A    between atoms: _105  and  _106
REMARK   35  A    between atoms: _116  and  _118
REMARK   36  A    between atoms: _118  and  _119
REMARK   37  A    between atoms: _118  and  _121
REMARK   38  A    between atoms: _121  and  _122
REMARK   39  A    between atoms: _122  and  _123
REMARK   40  A    between atoms: _126  and  _128
REMARK   41  A    between atoms: _128  and  _129
REMARK   42  A    between atoms: _128  and  _131
REMARK   43  A    between atoms: _131  and  _132
REMARK   44  A    between atoms: _132  and  _133
REMARK   45  A    between atoms: _133  and  _134
REMARK   46  A    between atoms: _143  and  _145
REMARK   47  A    between atoms: _145  and  _146
REMARK   48  A    between atoms: _145  and  _148
REMARK   49  A    between atoms: _148  and  _149
REMARK   50  A    between atoms: _154  and  _155
REMARK   51  A    between atoms: _157  and  _159
REMARK   52  A    between atoms: _159  and  _160
REMARK   53  A    between atoms: _159  and  _162
REMARK   54  A    between atoms: _162  and  _163
REMARK   55  A    between atoms: _163  and  _164
REMARK   56  A    between atoms: _170  and  _171
REMARK   57  A    between atoms: _176  and  _178
REMARK   58  A    between atoms: _178  and  _179
REMARK   59  A    between atoms: _178  and  _181
REMARK   60  A    between atoms: _181  and  _182
REMARK   61  A    between atoms: _185  and  _187
REMARK   62  A    between atoms: _187  and  _188
REMARK   63  A    between atoms: _191  and  _193
REMARK   64  A    between atoms: _193  and  _194
REMARK   65  A    between atoms: _193  and  _196
REMARK   66  A    between atoms: _199  and  _201
REMARK   67  A    between atoms: _201  and  _202
REMARK   68  A    between atoms: _201  and  _204
REMARK   69  A    between atoms: _204  and  _205
REMARK   70  A    between atoms: _208  and  _210
REMARK   71  A    between atoms: _210  and  _211
REMARK   72  A    between atoms: _210  and  _213
REMARK   73  A    between atoms: _213  and  _214
REMARK   74  A    between atoms: _219  and  _221
REMARK   75  A    between atoms: _221  and  _222
REMARK   76  A    between atoms: _221  and  _224
REMARK   77  A    between atoms: _224  and  _225
REMARK   78  A    between atoms: _230  and  _232
REMARK   79  A    between atoms: _232  and  _233
REMARK   80  A    between atoms: _232  and  _235
REMARK   81  A    between atoms: _235  and  _236
REMARK   82  A    between atoms: _236  and  _237
REMARK   83  A    between atoms: _239  and  _241
REMARK   84  A    between atoms: _241  and  _242
REMARK   85  A    between atoms: _241  and  _244
REMARK   86  A    between atoms: _246  and  _248
REMARK   87  A    between atoms: _248  and  _249
REMARK   88  A    between atoms: _251  and  _253
REMARK   89  A    between atoms: _253  and  _254
REMARK   90  A    between atoms: _253  and  _256
REMARK   91  A    between atoms: _256  and  _257
REMARK   92  A    between atoms: _259  and  _261
REMARK   93  A    between atoms: _261  and  _262
REMARK   94  A    between atoms: _264  and  _266
REMARK   95  A    between atoms: _266  and  _267
REMARK   96  A    between atoms: _270  and  _272
REMARK   97  A    between atoms: _272  and  _273
REMARK   98  A    between atoms: _272  and  _275
REMARK   99  A    between atoms: _275  and  _276
REMARK  100  A    between atoms: _279  and  _281
REMARK  101  A    between atoms: _281  and  _282
REMARK  102  A    between atoms: _281  and  _284
REMARK  103  A    between atoms: _284  and  _285
REMARK  104  A    between atoms: _290  and  _291
REMARK  105  A    between atoms: _293  and  _295
REMARK  106  A    between atoms: _295  and  _296
REMARK  107  A    between atoms: _295  and  _298
REMARK  108  A    between atoms: _301  and  _303
REMARK  109  A    between atoms: _303  and  _304
REMARK  110  A    between atoms: _303  and  _306
REMARK  111  A    between atoms: _306  and  _307
REMARK  112  A    between atoms: _307  and  _308
REMARK  113  A    between atoms: _313  and  _315
REMARK  114  A    between atoms: _315  and  _316
REMARK  115  A    between atoms: _315  and  _318
REMARK  116  A    between atoms: _318  and  _319
REMARK  117  A    between atoms: _322  and  _324
REMARK  118  A    between atoms: _324  and  _325
REMARK  119  A    between atoms: _324  and  _327
REMARK  120  A    between atoms: _330  and  _332
REMARK  121  A    between atoms: _332  and  _333
REMARK  122  A    between atoms: _335  and  _337
REMARK  123  A    between atoms: _337  and  _338
REMARK  124  A    between atoms: _337  and  _340
REMARK  125  A    between atoms: _340  and  _341
REMARK  126  A    between atoms: _344  and  _346
REMARK  127  A    between atoms: _346  and  _347
REMARK  128  A    between atoms: _346  and  _349
REMARK  129  A    between atoms: _349  and  _350
REMARK  130  A    between atoms: _353  and  _355
REMARK  131  A    between atoms: _355  and  _356
REMARK  132  A    between atoms: _355  and  _358
REMARK  133  A    between atoms: _358  and  _359
REMARK  134  A    between atoms: _359  and  _360
REMARK  135  A    between atoms: _360  and  _361
REMARK  136  A    between atoms: _370  and  _372
REMARK  137  A    between atoms: _372  and  _373
REMARK  138  A    between atoms: _372  and  _375
REMARK  139  A    between atoms: _375  and  _376
REMARK  140  A    between atoms: _379  and  _381
REMARK  141  A    between atoms: _381  and  _382
REMARK  142  A    between atoms: _381  and  _384
REMARK  143  A    between atoms: _384  and  _385
REMARK  144  A    between atoms: _388  and  _390
REMARK  145  A    between atoms: _390  and  _391
REMARK  146  A    between atoms: _394  and  _396
REMARK  147  A    between atoms: _396  and  _397
REMARK  148  A    between atoms: _396  and  _399
REMARK  149  A    between atoms: _399  and  _400
REMARK  150  A    between atoms: _402  and  _404
REMARK  151  A    between atoms: _404  and  _405
REMARK  152  A    between atoms: _404  and  _407
REMARK  153  A    between atoms: _407  and  _408
REMARK  154  A    between atoms: _408  and  _409
REMARK  155  A    between atoms: _409  and  _410
REMARK  156  A    between atoms: _410  and  _411
REMARK  157  A    between atoms: _415  and  _417
REMARK  158  A    between atoms: _417  and  _418
REMARK  159  A    between atoms: _417  and  _420
REMARK  160  A    between atoms: _420  and  _421
REMARK  161  A    between atoms: _426  and  _428
REMARK  162  A    between atoms: _428  and  _429
REMARK  163  A    between atoms: _428  and  _431
REMARK  164  A    between atoms: _431  and  _432
REMARK  165  A    between atoms: _432  and  _433
REMARK  166  A    between atoms: _436  and  _438
REMARK  167  A    between atoms: _438  and  _439
REMARK  168  A    between atoms: _438  and  _441
REMARK  169  A    between atoms: _444  and  _446
REMARK  170  A    between atoms: _446  and  _447
REMARK  171  A    between atoms: _446  and  _449
REMARK  172  A    between atoms: _449  and  _450
REMARK  173  A    between atoms: _453  and  _455
REMARK  174  A    between atoms: _455  and  _456
REMARK  175  A    between atoms: _455  and  _458
REMARK  176  A    between atoms: _458  and  _459
REMARK  177  A    between atoms: _462  and  _464
REMARK  178  A    between atoms: _464  and  _465
REMARK  179  A    between atoms: _464  and  _467
REMARK  180  A    between atoms: _467  and  _468
REMARK  181  A    between atoms: _471  and  _473
REMARK  182  A    between atoms: _473  and  _474
REMARK  183  A    between atoms: _476  and  _478
REMARK  184  A    between atoms: _478  and  _479
REMARK  185  A    between atoms: _478  and  _481
REMARK  186  A    between atoms: _481  and  _482
REMARK  187  A    between atoms: _482  and  _483
REMARK  188  A    between atoms: _486  and  _488
REMARK  189  A    between atoms: _488  and  _489
REMARK  190  A    between atoms: _488  and  _491
REMARK  191  A    between atoms: _491  and  _492
REMARK  192  A    between atoms: _495  and  _497
REMARK  193  A    between atoms: _497  and  _498
REMARK  194  A    between atoms: _497  and  _500
REMARK  195  A    between atoms: _500  and  _501
REMARK  196  A    between atoms: _507  and  _509
REMARK  197  A    between atoms: _509  and  _510
REMARK  198  A    between atoms: _509  and  _512
REMARK  199  A    between atoms: _512  and  _513
REMARK  200  A    between atoms: _518  and  _520
REMARK  201  A    between atoms: _520  and  _521
REMARK  202  A    between atoms: _520  and  _523
REMARK  203  A    between atoms: _523  and  _524
REMARK  204  A    between atoms: _529  and  _531
REMARK  205  A    between atoms: _531  and  _532
REMARK  206  A    between atoms: _531  and  _534
REMARK  207  A    between atoms: _534  and  _535
REMARK  208  A    between atoms: _538  and  _540
REMARK  209  A    between atoms: _540  and  _541
REMARK  210  A    between atoms: _540  and  _543
REMARK  211  A    between atoms: _543  and  _544
REMARK  212  A    between atoms: _549  and  _551
REMARK  213  A    between atoms: _551  and  _552
REMARK  214  A    between atoms: _551  and  _554
REMARK  215  A    between atoms: _554  and  _555
REMARK  216  A    between atoms: _555  and  _556
REMARK  217  A    between atoms: _556  and  _557
REMARK  218  A    between atoms: _566  and  _568
REMARK  219  A    between atoms: _568  and  _569
REMARK  220  A    between atoms: _571  and  _573
REMARK  221  A    between atoms: _573  and  _574
REMARK  222  A    between atoms: _573  and  _576
REMARK  223  A    between atoms: _576  and  _577
REMARK  224  A    between atoms: _582  and  _584
REMARK  225  A    between atoms: _584  and  _585
REMARK  226  A    between atoms: _587  and  _589
REMARK  227  A    between atoms: _589  and  _590
REMARK  228  A    between atoms: _593  and  _595
REMARK  229  A    between atoms: _595  and  _596
REMARK  230  A    between atoms: _598  and  _600
REMARK  231  A    between atoms: _600  and  _601
REMARK  232  A    between atoms: _600  and  _603
REMARK  233  A    between atoms: _603  and  _604
REMARK  234  A    between atoms: _604  and  _605
REMARK  235  A    between atoms: _605  and  _606
REMARK  236  A    between atoms: _615  and  _617
REMARK  237  A    between atoms: _617  and  _618
REMARK  238  A    between atoms: _617  and  _620
REMARK  239  A    between atoms: _620  and  _621
REMARK  240  A    between atoms: _624  and  _626
REMARK  241  A    between atoms: _626  and  _627
REMARK  242  A    between atoms: _626  and  _629
REMARK  243  A    between atoms: _629  and  _630
REMARK                            x       y       z     vdW  Elec       q    Type
REMARK                         _______ _______ _______ _____ _____    ______ ____
ROOT
ATOM      1  O   HOH     1       0.662  44.341   3.976  0.00  0.00    +0.000 OA
ENDROOT
TORSDOF 0
REMARK  Name = ../refined-set-2016/1ppi/1ppi_pocket.pdb
REMARK  243 active torsions:
REMARK  status: ('A' for Active; 'I' for Inactive)
REMARK    1  A    between atoms: _1  and  _3
REMARK    2  A    between atoms: _3  and  _4
REMARK    3  A    between atoms: _3  and  _6
REMARK    4  A    between atoms: _6  and  _7
REMARK    5  A    between atoms: _12  and  _14
REMARK    6  A    between atoms: _14  and  _15
REMARK    7  A    between atoms: _14  and  _17
REMARK    8  A    between atoms: _17  and  _18
REMARK    9  A    between atoms: _24  and  _26
REMARK   10  A    between atoms: _26  and  _27
REMARK   11  A    between atoms: _26  and  _29
REMARK   12  A    between atoms: _29  and  _30
REMARK   13  A    between atoms: _30  and  _31
REMARK   14  A    between atoms: _37  and  _38
REMARK   15  A    between atoms: _43  and  _45
REMARK   16  A    between atoms: _45  and  _46
REMARK   17  A    between atoms: _45  and  _48
REMARK   18  A    between atoms: _48  and  _49
REMARK   19  A    between atoms: _54  and  _56
REMARK   20  A    between atoms: _56  and  _57
REMARK   21  A    between atoms: _56  and  _59
REMARK   22  A    between atoms: _62  and  _64
REMARK   23  A    between atoms: _64  and  _65
REMARK   24  A    between atoms: _64  and  _67
REMARK   25  A    between atoms: _71  and  _72
REMARK   26  A    between atoms: _78  and  _79
REMARK   27  A    between atoms: _84  and  _86
REMARK   28  A    between atoms: _86  and  _87
REMARK   29  A    between atoms: _86  and  _89
REMARK   30  A    between atoms: _89  and  _90
REMARK   31  A    between atoms: _100  and  _102
REMARK   32  A    between atoms: _102  and  _103
REMARK   33  A    between atoms: _102  and  _105
REMARK   34  A    between atoms: _105  and  _106
REMARK   35  A    between atoms: _116  and  _118
REMARK   36  A    between atoms: _118  and  _119
REMARK   37  A    between atoms: _118  and  _121
REMARK   38  A    between atoms: _121  and  _122
REMARK   39  A    between atoms: _122  and  _123
REMARK   40  A    between atoms: _126  and  _128
REMARK   41  A    between atoms: _128  and  _129
REMARK   42  A    between atoms: _128  and  _131
REMARK   43  A    between atoms: _131  and  _132
REMARK   44  A    between atoms: _132  and  _133
REMARK   45  A    between atoms: _133  and  _134
REMARK   46  A    between atoms: _143  and  _145
REMARK   47  A    between atoms: _145  and  _146
REMARK   48  A    between atoms: _145  and  _148
REMARK   49  A    between atoms: _148  and  _149
REMARK   50  A    between atoms: _154  and  _155
REMARK   51  A    between atoms: _157  and  _159
REMARK   52  A    between atoms: _159  and  _160
REMARK   53  A    between atoms: _159  and  _162
REMARK   54  A    between atoms: _162  and  _163
REMARK   55  A    between atoms: _163  and  _164
REMARK   56  A    between atoms: _170  and  _171
REMARK   57  A    between atoms: _176  and  _178
REMARK   58  A    between atoms: _178  and  _179
REMARK   59  A    between atoms: _178  and  _181
REMARK   60  A    between atoms: _181  and  _182
REMARK   61  A    between atoms: _185  and  _187
REMARK   62  A    between atoms: _187  and  _188
REMARK   63  A    between atoms: _191  and  _193
REMARK   64  A    between atoms: _193  and  _194
REMARK   65  A    between atoms: _193  and  _196
REMARK   66  A    between atoms: _199  and  _201
REMARK   67  A    between atoms: _201  and  _202
REMARK   68  A    between atoms: _201  and  _204
REMARK   69  A    between atoms: _204  and  _205
REMARK   70  A    between atoms: _208  and  _210
REMARK   71  A    between atoms: _210  and  _211
REMARK   72  A    between atoms: _210  and  _213
REMARK   73  A    between atoms: _213  and  _214
REMARK   74  A    between atoms: _219  and  _221
REMARK   75  A    between atoms: _221  and  _222
REMARK   76  A    between atoms: _221  and  _224
REMARK   77  A    between atoms: _224  and  _225
REMARK   78  A    between atoms: _230  and  _232
REMARK   79  A    between atoms: _232  and  _233
REMARK   80  A    between atoms: _232  and  _235
REMARK   81  A    between atoms: _235  and  _236
REMARK   82  A    between atoms: _236  and  _237
REMARK   83  A    between atoms: _239  and  _241
REMARK   84  A    between atoms: _241  and  _242
REMARK   85  A    between atoms: _241  and  _244
REMARK   86  A    between atoms: _246  and  _248
REMARK   87  A    between atoms: _248  and  _249
REMARK   88  A    between atoms: _251  and  _253
REMARK   89  A    between atoms: _253  and  _254
REMARK   90  A    between atoms: _253  and  _256
REMARK   91  A    between atoms: _256  and  _257
REMARK   92  A    between atoms: _259  and  _261
REMARK   93  A    between atoms: _261  and  _262
REMARK   94  A    between atoms: _264  and  _266
REMARK   95  A    between atoms: _266  and  _267
REMARK   96  A    between atoms: _270  and  _272
REMARK   97  A    between atoms: _272  and  _273
REMARK   98  A    between atoms: _272  and  _275
REMARK   99  A    between atoms: _275  and  _276
REMARK  100  A    between atoms: _279  and  _281
REMARK  101  A    between atoms: _281  and  _282
REMARK  102  A    between atoms: _281  and  _284
REMARK  103  A    between atoms: _284  and  _285
REMARK  104  A    between atoms: _290  and  _291
REMARK  105  A    between atoms: _293  and  _295
REMARK  106  A    between atoms: _295  and  _296
REMARK  107  A    between atoms: _295  and  _298
REMARK  108  A    between atoms: _301  and  _303
REMARK  109  A    between atoms: _303  and  _304
REMARK  110  A    between atoms: _303  and  _306
REMARK  111  A    between atoms: _306  and  _307
REMARK  112  A    between atoms: _307  and  _308
REMARK  113  A    between atoms: _313  and  _315
REMARK  114  A    between atoms: _315  and  _316
REMARK  115  A    between atoms: _315  and  _318
REMARK  116  A    between atoms: _318  and  _319
REMARK  117  A    between atoms: _322  and  _324
REMARK  118  A    between atoms: _324  and  _325
REMARK  119  A    between atoms: _324  and  _327
REMARK  120  A    between atoms: _330  and  _332
REMARK  121  A    between atoms: _332  and  _333
REMARK  122  A    between atoms: _335  and  _337
REMARK  123  A    between atoms: _337  and  _338
REMARK  124  A    between atoms: _337  and  _340
REMARK  125  A    between atoms: _340  and  _341
REMARK  126  A    between atoms: _344  and  _346
REMARK  127  A    between atoms: _346  and  _347
REMARK  128  A    between atoms: _346  and  _349
REMARK  129  A    between atoms: _349  and  _350
REMARK  130  A    between atoms: _353  and  _355
REMARK  131  A    between atoms: _355  and  _356
REMARK  132  A    between atoms: _355  and  _358
REMARK  133  A    between atoms: _358  and  _359
REMARK  134  A    between atoms: _359  and  _360
REMARK  135  A    between atoms: _360  and  _361
REMARK  136  A    between atoms: _370  and  _372
REMARK  137  A    between atoms: _372  and  _373
REMARK  138  A    between atoms: _372  and  _375
REMARK  139  A    between atoms: _375  and  _376
REMARK  140  A    between atoms: _379  and  _381
REMARK  141  A    between atoms: _381  and  _382
REMARK  142  A    between atoms: _381  and  _384
REMARK  143  A    between atoms: _384  and  _385
REMARK  144  A    between atoms: _388  and  _390
REMARK  145  A    between atoms: _390  and  _391
REMARK  146  A    between atoms: _394  and  _396
REMARK  147  A    between atoms: _396  and  _397
REMARK  148  A    between atoms: _396  and  _399
REMARK  149  A    between atoms: _399  and  _400
REMARK  150  A    between atoms: _402  and  _404
REMARK  151  A    between atoms: _404  and  _405
REMARK  152  A    between atoms: _404  and  _407
REMARK  153  A    between atoms: _407  and  _408
REMARK  154  A    between atoms: _408  and  _409
REMARK  155  A    between atoms: _409  and  _410
REMARK  156  A    between atoms: _410  and  _411
REMARK  157  A    between atoms: _415  and  _417
REMARK  158  A    between atoms: _417  and  _418
REMARK  159  A    between atoms: _417  and  _420
REMARK  160  A    between atoms: _420  and  _421
REMARK  161  A    between atoms: _426  and  _428
REMARK  162  A    between atoms: _428  and  _429
REMARK  163  A    between atoms: _428  and  _431
REMARK  164  A    between atoms: _431  and  _432
REMARK  165  A    between atoms: _432  and  _433
REMARK  166  A    between atoms: _436  and  _438
REMARK  167  A    between atoms: _438  and  _439
REMARK  168  A    between atoms: _438  and  _441
REMARK  169  A    between atoms: _444  and  _446
REMARK  170  A    between atoms: _446  and  _447
REMARK  171  A    between atoms: _446  and  _449
REMARK  172  A    between atoms: _449  and  _450
REMARK  173  A    between atoms: _453  and  _455
REMARK  174  A    between atoms: _455  and  _456
REMARK  175  A    between atoms: _455  and  _458
REMARK  176  A    between atoms: _458  and  _459
REMARK  177  A    between atoms: _462  and  _464
REMARK  178  A    between atoms: _464  and  _465
REMARK  179  A    between atoms: _464  and  _467
REMARK  180  A    between atoms: _467  and  _468
REMARK  181  A    between atoms: _471  and  _473
REMARK  182  A    between atoms: _473  and  _474
REMARK  183  A    between atoms: _476  and  _478
REMARK  184  A    between atoms: _478  and  _479
REMARK  185  A    between atoms: _478  and  _481
REMARK  186  A    between atoms: _481  and  _482
REMARK  187  A    between atoms: _482  and  _483
REMARK  188  A    between atoms: _486  and  _488
REMARK  189  A    between atoms: _488  and  _489
REMARK  190  A    between atoms: _488  and  _491
REMARK  191  A    between atoms: _491  and  _492
REMARK  192  A    between atoms: _495  and  _497
REMARK  193  A    between atoms: _497  and  _498
REMARK  194  A    between atoms: _497  and  _500
REMARK  195  A    between atoms: _500  and  _501
REMARK  196  A    between atoms: _507  and  _509
REMARK  197  A    between atoms: _509  and  _510
REMARK  198  A    between atoms: _509  and  _512
REMARK  199  A    between atoms: _512  and  _513
REMARK  200  A    between atoms: _518  and  _520
REMARK  201  A    between atoms: _520  and  _521
REMARK  202  A    between atoms: _520  and  _523
REMARK  203  A    between atoms: _523  and  _524
REMARK  204  A    between atoms: _529  and  _531
REMARK  205  A    between atoms: _531  and  _532
REMARK  206  A    between atoms: _531  and  _534
REMARK  207  A    between atoms: _534  and  _535
REMARK  208  A    between atoms: _538  and  _540
REMARK  209  A    between atoms: _540  and  _541
REMARK  210  A    between atoms: _540  and  _543
REMARK  211  A    between atoms: _543  and  _544
REMARK  212  A    between atoms: _549  and  _551
REMARK  213  A    between atoms: _551  and  _552
REMARK  214  A    between atoms: _551  and  _554
REMARK  215  A    between atoms: _554  and  _555
REMARK  216  A    between atoms: _555  and  _556
REMARK  217  A    between atoms: _556  and  _557
REMARK  218  A    between atoms: _566  and  _568
REMARK  219  A    between atoms: _568  and  _569
REMARK  220  A    between atoms: _571  and  _573
REMARK  221  A    between atoms: _573  and  _574
REMARK  222  A    between atoms: _573  and  _576
REMARK  223  A    between atoms: _576  and  _577
REMARK  224  A    between atoms: _582  and  _584
REMARK  225  A    between atoms: _584  and  _585
REMARK  226  A    between atoms: _587  and  _589
REMARK  227  A    between atoms: _589  and  _590
REMARK  228  A    between atoms: _593  and  _595
REMARK  229  A    between atoms: _595  and  _596
REMARK  230  A    between atoms: _598  and  _600
REMARK  231  A    between atoms: _600  and  _601
REMARK  232  A    between atoms: _600  and  _603
REMARK  233  A    between atoms: _603  and  _604
REMARK  234  A    between atoms: _604  and  _605
REMARK  235  A    between atoms: _605  and  _606
REMARK  236  A    between atoms: _615  and  _617
REMARK  237  A    between atoms: _617  and  _618
REMARK  238  A    between atoms: _617  and  _620
REMARK  239  A    between atoms: _620  and  _621
REMARK  240  A    between atoms: _624  and  _626
REMARK  241  A    between atoms: _626  and  _627
REMARK  242  A    between atoms: _626  and  _629
REMARK  243  A    between atoms: _629  and  _630
REMARK                            x       y       z     vdW  Elec       q    Type
REMARK                         _______ _______ _______ _____ _____    ______ ____
ROOT
ATOM      1  O   HOH     1      -1.941  43.655   1.110  0.00  0.00    +0.000 OA
ENDROOT
TORSDOF 0
REMARK  Name = ../refined-set-2016/1ppi/1ppi_pocket.pdb
REMARK  243 active torsions:
REMARK  status: ('A' for Active; 'I' for Inactive)
REMARK    1  A    between atoms: _1  and  _3
REMARK    2  A    between atoms: _3  and  _4
REMARK    3  A    between atoms: _3  and  _6
REMARK    4  A    between atoms: _6  and  _7
REMARK    5  A    between atoms: _12  and  _14
REMARK    6  A    between atoms: _14  and  _15
REMARK    7  A    between atoms: _14  and  _17
REMARK    8  A    between atoms: _17  and  _18
REMARK    9  A    between atoms: _24  and  _26
REMARK   10  A    between atoms: _26  and  _27
REMARK   11  A    between atoms: _26  and  _29
REMARK   12  A    between atoms: _29  and  _30
REMARK   13  A    between atoms: _30  and  _31
REMARK   14  A    between atoms: _37  and  _38
REMARK   15  A    between atoms: _43  and  _45
REMARK   16  A    between atoms: _45  and  _46
REMARK   17  A    between atoms: _45  and  _48
REMARK   18  A    between atoms: _48  and  _49
REMARK   19  A    between atoms: _54  and  _56
REMARK   20  A    between atoms: _56  and  _57
REMARK   21  A    between atoms: _56  and  _59
REMARK   22  A    between atoms: _62  and  _64
REMARK   23  A    between atoms: _64  and  _65
REMARK   24  A    between atoms: _64  and  _67
REMARK   25  A    between atoms: _71  and  _72
REMARK   26  A    between atoms: _78  and  _79
REMARK   27  A    between atoms: _84  and  _86
REMARK   28  A    between atoms: _86  and  _87
REMARK   29  A    between atoms: _86  and  _89
REMARK   30  A    between atoms: _89  and  _90
REMARK   31  A    between atoms: _100  and  _102
REMARK   32  A    between atoms: _102  and  _103
REMARK   33  A    between atoms: _102  and  _105
REMARK   34  A    between atoms: _105  and  _106
REMARK   35  A    between atoms: _116  and  _118
REMARK   36  A    between atoms: _118  and  _119
REMARK   37  A    between atoms: _118  and  _121
REMARK   38  A    between atoms: _121  and  _122
REMARK   39  A    between atoms: _122  and  _123
REMARK   40  A    between atoms: _126  and  _128
REMARK   41  A    between atoms: _128  and  _129
REMARK   42  A    between atoms: _128  and  _131
REMARK   43  A    between atoms: _131  and  _132
REMARK   44  A    between atoms: _132  and  _133
REMARK   45  A    between atoms: _133  and  _134
REMARK   46  A    between atoms: _143  and  _145
REMARK   47  A    between atoms: _145  and  _146
REMARK   48  A    between atoms: _145  and  _148
REMARK   49  A    between atoms: _148  and  _149
REMARK   50  A    between atoms: _154  and  _155
REMARK   51  A    between atoms: _157  and  _159
REMARK   52  A    between atoms: _159  and  _160
REMARK   53  A    between atoms: _159  and  _162
REMARK   54  A    between atoms: _162  and  _163
REMARK   55  A    between atoms: _163  and  _164
REMARK   56  A    between atoms: _170  and  _171
REMARK   57  A    between atoms: _176  and  _178
REMARK   58  A    between atoms: _178  and  _179
REMARK   59  A    between atoms: _178  and  _181
REMARK   60  A    between atoms: _181  and  _182
REMARK   61  A    between atoms: _185  and  _187
REMARK   62  A    between atoms: _187  and  _188
REMARK   63  A    between atoms: _191  and  _193
REMARK   64  A    between atoms: _193  and  _194
REMARK   65  A    between atoms: _193  and  _196
REMARK   66  A    between atoms: _199  and  _201
REMARK   67  A    between atoms: _201  and  _202
REMARK   68  A    between atoms: _201  and  _204
REMARK   69  A    between atoms: _204  and  _205
REMARK   70  A    between atoms: _208  and  _210
REMARK   71  A    between atoms: _210  and  _211
REMARK   72  A    between atoms: _210  and  _213
REMARK   73  A    between atoms: _213  and  _214
REMARK   74  A    between atoms: _219  and  _221
REMARK   75  A    between atoms: _221  and  _222
REMARK   76  A    between atoms: _221  and  _224
REMARK   77  A    between atoms: _224  and  _225
REMARK   78  A    between atoms: _230  and  _232
REMARK   79  A    between atoms: _232  and  _233
REMARK   80  A    between atoms: _232  and  _235
REMARK   81  A    between atoms: _235  and  _236
REMARK   82  A    between atoms: _236  and  _237
REMARK   83  A    between atoms: _239  and  _241
REMARK   84  A    between atoms: _241  and  _242
REMARK   85  A    between atoms: _241  and  _244
REMARK   86  A    between atoms: _246  and  _248
REMARK   87  A    between atoms: _248  and  _249
REMARK   88  A    between atoms: _251  and  _253
REMARK   89  A    between atoms: _253  and  _254
REMARK   90  A    between atoms: _253  and  _256
REMARK   91  A    between atoms: _256  and  _257
REMARK   92  A    between atoms: _259  and  _261
REMARK   93  A    between atoms: _261  and  _262
REMARK   94  A    between atoms: _264  and  _266
REMARK   95  A    between atoms: _266  and  _267
REMARK   96  A    between atoms: _270  and  _272
REMARK   97  A    between atoms: _272  and  _273
REMARK   98  A    between atoms: _272  and  _275
REMARK   99  A    between atoms: _275  and  _276
REMARK  100  A    between atoms: _279  and  _281
REMARK  101  A    between atoms: _281  and  _282
REMARK  102  A    between atoms: _281  and  _284
REMARK  103  A    between atoms: _284  and  _285
REMARK  104  A    between atoms: _290  and  _291
REMARK  105  A    between atoms: _293  and  _295
REMARK  106  A    between atoms: _295  and  _296
REMARK  107  A    between atoms: _295  and  _298
REMARK  108  A    between atoms: _301  and  _303
REMARK  109  A    between atoms: _303  and  _304
REMARK  110  A    between atoms: _303  and  _306
REMARK  111  A    between atoms: _306  and  _307
REMARK  112  A    between atoms: _307  and  _308
REMARK  113  A    between atoms: _313  and  _315
REMARK  114  A    between atoms: _315  and  _316
REMARK  115  A    between atoms: _315  and  _318
REMARK  116  A    between atoms: _318  and  _319
REMARK  117  A    between atoms: _322  and  _324
REMARK  118  A    between atoms: _324  and  _325
REMARK  119  A    between atoms: _324  and  _327
REMARK  120  A    between atoms: _330  and  _332
REMARK  121  A    between atoms: _332  and  _333
REMARK  122  A    between atoms: _335  and  _337
REMARK  123  A    between atoms: _337  and  _338
REMARK  124  A    between atoms: _337  and  _340
REMARK  125  A    between atoms: _340  and  _341
REMARK  126  A    between atoms: _344  and  _346
REMARK  127  A    between atoms: _346  and  _347
REMARK  128  A    between atoms: _346  and  _349
REMARK  129  A    between atoms: _349  and  _350
REMARK  130  A    between atoms: _353  and  _355
REMARK  131  A    between atoms: _355  and  _356
REMARK  132  A    between atoms: _355  and  _358
REMARK  133  A    between atoms: _358  and  _359
REMARK  134  A    between atoms: _359  and  _360
REMARK  135  A    between atoms: _360  and  _361
REMARK  136  A    between atoms: _370  and  _372
REMARK  137  A    between atoms: _372  and  _373
REMARK  138  A    between atoms: _372  and  _375
REMARK  139  A    between atoms: _375  and  _376
REMARK  140  A    between atoms: _379  and  _381
REMARK  141  A    between atoms: _381  and  _382
REMARK  142  A    between atoms: _381  and  _384
REMARK  143  A    between atoms: _384  and  _385
REMARK  144  A    between atoms: _388  and  _390
REMARK  145  A    between atoms: _390  and  _391
REMARK  146  A    between atoms: _394  and  _396
REMARK  147  A    between atoms: _396  and  _397
REMARK  148  A    between atoms: _396  and  _399
REMARK  149  A    between atoms: _399  and  _400
REMARK  150  A    between atoms: _402  and  _404
REMARK  151  A    between atoms: _404  and  _405
REMARK  152  A    between atoms: _404  and  _407
REMARK  153  A    between atoms: _407  and  _408
REMARK  154  A    between atoms: _408  and  _409
REMARK  155  A    between atoms: _409  and  _410
REMARK  156  A    between atoms: _410  and  _411
REMARK  157  A    between atoms: _415  and  _417
REMARK  158  A    between atoms: _417  and  _418
REMARK  159  A    between atoms: _417  and  _420
REMARK  160  A    between atoms: _420  and  _421
REMARK  161  A    between atoms: _426  and  _428
REMARK  162  A    between atoms: _428  and  _429
REMARK  163  A    between atoms: _428  and  _431
REMARK  164  A    between atoms: _431  and  _432
REMARK  165  A    between atoms: _432  and  _433
REMARK  166  A    between atoms: _436  and  _438
REMARK  167  A    between atoms: _438  and  _439
REMARK  168  A    between atoms: _438  and  _441
REMARK  169  A    between atoms: _444  and  _446
REMARK  170  A    between atoms: _446  and  _447
REMARK  171  A    between atoms: _446  and  _449
REMARK  172  A    between atoms: _449  and  _450
REMARK  173  A    between atoms: _453  and  _455
REMARK  174  A    between atoms: _455  and  _456
REMARK  175  A    between atoms: _455  and  _458
REMARK  176  A    between atoms: _458  and  _459
REMARK  177  A    between atoms: _462  and  _464
REMARK  178  A    between atoms: _464  and  _465
REMARK  179  A    between atoms: _464  and  _467
REMARK  180  A    between atoms: _467  and  _468
REMARK  181  A    between atoms: _471  and  _473
REMARK  182  A    between atoms: _473  and  _474
REMARK  183  A    between atoms: _476  and  _478
REMARK  184  A    between atoms: _478  and  _479
REMARK  185  A    between atoms: _478  and  _481
REMARK  186  A    between atoms: _481  and  _482
REMARK  187  A    between atoms: _482  and  _483
REMARK  188  A    between atoms: _486  and  _488
REMARK  189  A    between atoms: _488  and  _489
REMARK  190  A    between atoms: _488  and  _491
REMARK  191  A    between atoms: _491  and  _492
REMARK  192  A    between atoms: _495  and  _497
REMARK  193  A    between atoms: _497  and  _498
REMARK  194  A    between atoms: _497  and  _500
REMARK  195  A    between atoms: _500  and  _501
REMARK  196  A    between atoms: _507  and  _509
REMARK  197  A    between atoms: _509  and  _510
REMARK  198  A    between atoms: _509  and  _512
REMARK  199  A    between atoms: _512  and  _513
REMARK  200  A    between atoms: _518  and  _520
REMARK  201  A    between atoms: _520  and  _521
REMARK  202  A    between atoms: _520  and  _523
REMARK  203  A    between atoms: _523  and  _524
REMARK  204  A    between atoms: _529  and  _531
REMARK  205  A    between atoms: _531  and  _532
REMARK  206  A    between atoms: _531  and  _534
REMARK  207  A    between atoms: _534  and  _535
REMARK  208  A    between atoms: _538  and  _540
REMARK  209  A    between atoms: _540  and  _541
REMARK  210  A    between atoms: _540  and  _543
REMARK  211  A    between atoms: _543  and  _544
REMARK  212  A    between atoms: _549  and  _551
REMARK  213  A    between atoms: _551  and  _552
REMARK  214  A    between atoms: _551  and  _554
REMARK  215  A    between atoms: _554  and  _555
REMARK  216  A    between atoms: _555  and  _556
REMARK  217  A    between atoms: _556  and  _557
REMARK  218  A    between atoms: _566  and  _568
REMARK  219  A    between atoms: _568  and  _569
REMARK  220  A    between atoms: _571  and  _573
REMARK  221  A    between atoms: _573  and  _574
REMARK  222  A    between atoms: _573  and  _576
REMARK  223  A    between atoms: _576  and  _577
REMARK  224  A    between atoms: _582  and  _584
REMARK  225  A    between atoms: _584  and  _585
REMARK  226  A    between atoms: _587  and  _589
REMARK  227  A    between atoms: _589  and  _590
REMARK  228  A    between atoms: _593  and  _595
REMARK  229  A    between atoms: _595  and  _596
REMARK  230  A    between atoms: _598  and  _600
REMARK  231  A    between atoms: _600  and  _601
REMARK  232  A    between atoms: _600  and  _603
REMARK  233  A    between atoms: _603  and  _604
REMARK  234  A    between atoms: _604  and  _605
REMARK  235  A    between atoms: _605  and  _606
REMARK  236  A    between atoms: _615  and  _617
REMARK  237  A    between atoms: _617  and  _618
REMARK  238  A    between atoms: _617  and  _620
REMARK  239  A    between atoms: _620  and  _621
REMARK  240  A    between atoms: _624  and  _626
REMARK  241  A    between atoms: _626  and  _627
REMARK  242  A    between atoms: _626  and  _629
REMARK  243  A    between atoms: _629  and  _630
REMARK                            x       y       z     vdW  Elec       q    Type
REMARK                         _______ _______ _______ _____ _____    ______ ____
ROOT
ATOM      1  O   HOH     1      -9.138  45.441   8.972  0.00  0.00    +0.000 OA
ENDROOT
TORSDOF 0
REMARK  Name = ../refined-set-2016/1ppi/1ppi_pocket.pdb
REMARK  243 active torsions:
REMARK  status: ('A' for Active; 'I' for Inactive)
REMARK    1  A    between atoms: _1  and  _3
REMARK    2  A    between atoms: _3  and  _4
REMARK    3  A    between atoms: _3  and  _6
REMARK    4  A    between atoms: _6  and  _7
REMARK    5  A    between atoms: _12  and  _14
REMARK    6  A    between atoms: _14  and  _15
REMARK    7  A    between atoms: _14  and  _17
REMARK    8  A    between atoms: _17  and  _18
REMARK    9  A    between atoms: _24  and  _26
REMARK   10  A    between atoms: _26  and  _27
REMARK   11  A    between atoms: _26  and  _29
REMARK   12  A    between atoms: _29  and  _30
REMARK   13  A    between atoms: _30  and  _31
REMARK   14  A    between atoms: _37  and  _38
REMARK   15  A    between atoms: _43  and  _45
REMARK   16  A    between atoms: _45  and  _46
REMARK   17  A    between atoms: _45  and  _48
REMARK   18  A    between atoms: _48  and  _49
REMARK   19  A    between atoms: _54  and  _56
REMARK   20  A    between atoms: _56  and  _57
REMARK   21  A    between atoms: _56  and  _59
REMARK   22  A    between atoms: _62  and  _64
REMARK   23  A    between atoms: _64  and  _65
REMARK   24  A    between atoms: _64  and  _67
REMARK   25  A    between atoms: _71  and  _72
REMARK   26  A    between atoms: _78  and  _79
REMARK   27  A    between atoms: _84  and  _86
REMARK   28  A    between atoms: _86  and  _87
REMARK   29  A    between atoms: _86  and  _89
REMARK   30  A    between atoms: _89  and  _90
REMARK   31  A    between atoms: _100  and  _102
REMARK   32  A    between atoms: _102  and  _103
REMARK   33  A    between atoms: _102  and  _105
REMARK   34  A    between atoms: _105  and  _106
REMARK   35  A    between atoms: _116  and  _118
REMARK   36  A    between atoms: _118  and  _119
REMARK   37  A    between atoms: _118  and  _121
REMARK   38  A    between atoms: _121  and  _122
REMARK   39  A    between atoms: _122  and  _123
REMARK   40  A    between atoms: _126  and  _128
REMARK   41  A    between atoms: _128  and  _129
REMARK   42  A    between atoms: _128  and  _131
REMARK   43  A    between atoms: _131  and  _132
REMARK   44  A    between atoms: _132  and  _133
REMARK   45  A    between atoms: _133  and  _134
REMARK   46  A    between atoms: _143  and  _145
REMARK   47  A    between atoms: _145  and  _146
REMARK   48  A    between atoms: _145  and  _148
REMARK   49  A    between atoms: _148  and  _149
REMARK   50  A    between atoms: _154  and  _155
REMARK   51  A    between atoms: _157  and  _159
REMARK   52  A    between atoms: _159  and  _160
REMARK   53  A    between atoms: _159  and  _162
REMARK   54  A    between atoms: _162  and  _163
REMARK   55  A    between atoms: _163  and  _164
REMARK   56  A    between atoms: _170  and  _171
REMARK   57  A    between atoms: _176  and  _178
REMARK   58  A    between atoms: _178  and  _179
REMARK   59  A    between atoms: _178  and  _181
REMARK   60  A    between atoms: _181  and  _182
REMARK   61  A    between atoms: _185  and  _187
REMARK   62  A    between atoms: _187  and  _188
REMARK   63  A    between atoms: _191  and  _193
REMARK   64  A    between atoms: _193  and  _194
REMARK   65  A    between atoms: _193  and  _196
REMARK   66  A    between atoms: _199  and  _201
REMARK   67  A    between atoms: _201  and  _202
REMARK   68  A    between atoms: _201  and  _204
REMARK   69  A    between atoms: _204  and  _205
REMARK   70  A    between atoms: _208  and  _210
REMARK   71  A    between atoms: _210  and  _211
REMARK   72  A    between atoms: _210  and  _213
REMARK   73  A    between atoms: _213  and  _214
REMARK   74  A    between atoms: _219  and  _221
REMARK   75  A    between atoms: _221  and  _222
REMARK   76  A    between atoms: _221  and  _224
REMARK   77  A    between atoms: _224  and  _225
REMARK   78  A    between atoms: _230  and  _232
REMARK   79  A    between atoms: _232  and  _233
REMARK   80  A    between atoms: _232  and  _235
REMARK   81  A    between atoms: _235  and  _236
REMARK   82  A    between atoms: _236  and  _237
REMARK   83  A    between atoms: _239  and  _241
REMARK   84  A    between atoms: _241  and  _242
REMARK   85  A    between atoms: _241  and  _244
REMARK   86  A    between atoms: _246  and  _248
REMARK   87  A    between atoms: _248  and  _249
REMARK   88  A    between atoms: _251  and  _253
REMARK   89  A    between atoms: _253  and  _254
REMARK   90  A    between atoms: _253  and  _256
REMARK   91  A    between atoms: _256  and  _257
REMARK   92  A    between atoms: _259  and  _261
REMARK   93  A    between atoms: _261  and  _262
REMARK   94  A    between atoms: _264  and  _266
REMARK   95  A    between atoms: _266  and  _267
REMARK   96  A    between atoms: _270  and  _272
REMARK   97  A    between atoms: _272  and  _273
REMARK   98  A    between atoms: _272  and  _275
REMARK   99  A    between atoms: _275  and  _276
REMARK  100  A    between atoms: _279  and  _281
REMARK  101  A    between atoms: _281  and  _282
REMARK  102  A    between atoms: _281  and  _284
REMARK  103  A    between atoms: _284  and  _285
REMARK  104  A    between atoms: _290  and  _291
REMARK  105  A    between atoms: _293  and  _295
REMARK  106  A    between atoms: _295  and  _296
REMARK  107  A    between atoms: _295  and  _298
REMARK  108  A    between atoms: _301  and  _303
REMARK  109  A    between atoms: _303  and  _304
REMARK  110  A    between atoms: _303  and  _306
REMARK  111  A    between atoms: _306  and  _307
REMARK  112  A    between atoms: _307  and  _308
REMARK  113  A    between atoms: _313  and  _315
REMARK  114  A    between atoms: _315  and  _316
REMARK  115  A    between atoms: _315  and  _318
REMARK  116  A    between atoms: _318  and  _319
REMARK  117  A    between atoms: _322  and  _324
REMARK  118  A    between atoms: _324  and  _325
REMARK  119  A    between atoms: _324  and  _327
REMARK  120  A    between atoms: _330  and  _332
REMARK  121  A    between atoms: _332  and  _333
REMARK  122  A    between atoms: _335  and  _337
REMARK  123  A    between atoms: _337  and  _338
REMARK  124  A    between atoms: _337  and  _340
REMARK  125  A    between atoms: _340  and  _341
REMARK  126  A    between atoms: _344  and  _346
REMARK  127  A    between atoms: _346  and  _347
REMARK  128  A    between atoms: _346  and  _349
REMARK  129  A    between atoms: _349  and  _350
REMARK  130  A    between atoms: _353  and  _355
REMARK  131  A    between atoms: _355  and  _356
REMARK  132  A    between atoms: _355  and  _358
REMARK  133  A    between atoms: _358  and  _359
REMARK  134  A    between atoms: _359  and  _360
REMARK  135  A    between atoms: _360  and  _361
REMARK  136  A    between atoms: _370  and  _372
REMARK  137  A    between atoms: _372  and  _373
REMARK  138  A    between atoms: _372  and  _375
REMARK  139  A    between atoms: _375  and  _376
REMARK  140  A    between atoms: _379  and  _381
REMARK  141  A    between atoms: _381  and  _382
REMARK  142  A    between atoms: _381  and  _384
REMARK  143  A    between atoms: _384  and  _385
REMARK  144  A    between atoms: _388  and  _390
REMARK  145  A    between atoms: _390  and  _391
REMARK  146  A    between atoms: _394  and  _396
REMARK  147  A    between atoms: _396  and  _397
REMARK  148  A    between atoms: _396  and  _399
REMARK  149  A    between atoms: _399  and  _400
REMARK  150  A    between atoms: _402  and  _404
REMARK  151  A    between atoms: _404  and  _405
REMARK  152  A    between atoms: _404  and  _407
REMARK  153  A    between atoms: _407  and  _408
REMARK  154  A    between atoms: _408  and  _409
REMARK  155  A    between atoms: _409  and  _410
REMARK  156  A    between atoms: _410  and  _411
REMARK  157  A    between atoms: _415  and  _417
REMARK  158  A    between atoms: _417  and  _418
REMARK  159  A    between atoms: _417  and  _420
REMARK  160  A    between atoms: _420  and  _421
REMARK  161  A    between atoms: _426  and  _428
REMARK  162  A    between atoms: _428  and  _429
REMARK  163  A    between atoms: _428  and  _431
REMARK  164  A    between atoms: _431  and  _432
REMARK  165  A    between atoms: _432  and  _433
REMARK  166  A    between atoms: _436  and  _438
REMARK  167  A    between atoms: _438  and  _439
REMARK  168  A    between atoms: _438  and  _441
REMARK  169  A    between atoms: _444  and  _446
REMARK  170  A    between atoms: _446  and  _447
REMARK  171  A    between atoms: _446  and  _449
REMARK  172  A    between atoms: _449  and  _450
REMARK  173  A    between atoms: _453  and  _455
REMARK  174  A    between atoms: _455  and  _456
REMARK  175  A    between atoms: _455  and  _458
REMARK  176  A    between atoms: _458  and  _459
REMARK  177  A    between atoms: _462  and  _464
REMARK  178  A    between atoms: _464  and  _465
REMARK  179  A    between atoms: _464  and  _467
REMARK  180  A    between atoms: _467  and  _468
REMARK  181  A    between atoms: _471  and  _473
REMARK  182  A    between atoms: _473  and  _474
REMARK  183  A    between atoms: _476  and  _478
REMARK  184  A    between atoms: _478  and  _479
REMARK  185  A    between atoms: _478  and  _481
REMARK  186  A    between atoms: _481  and  _482
REMARK  187  A    between atoms: _482  and  _483
REMARK  188  A    between atoms: _486  and  _488
REMARK  189  A    between atoms: _488  and  _489
REMARK  190  A    between atoms: _488  and  _491
REMARK  191  A    between atoms: _491  and  _492
REMARK  192  A    between atoms: _495  and  _497
REMARK  193  A    between atoms: _497  and  _498
REMARK  194  A    between atoms: _497  and  _500
REMARK  195  A    between atoms: _500  and  _501
REMARK  196  A    between atoms: _507  and  _509
REMARK  197  A    between atoms: _509  and  _510
REMARK  198  A    between atoms: _509  and  _512
REMARK  199  A    between atoms: _512  and  _513
REMARK  200  A    between atoms: _518  and  _520
REMARK  201  A    between atoms: _520  and  _521
REMARK  202  A    between atoms: _520  and  _523
REMARK  203  A    between atoms: _523  and  _524
REMARK  204  A    between atoms: _529  and  _531
REMARK  205  A    between atoms: _531  and  _532
REMARK  206  A    between atoms: _531  and  _534
REMARK  207  A    between atoms: _534  and  _535
REMARK  208  A    between atoms: _538  and  _540
REMARK  209  A    between atoms: _540  and  _541
REMARK  210  A    between atoms: _540  and  _543
REMARK  211  A    between atoms: _543  and  _544
REMARK  212  A    between atoms: _549  and  _551
REMARK  213  A    between atoms: _551  and  _552
REMARK  214  A    between atoms: _551  and  _554
REMARK  215  A    between atoms: _554  and  _555
REMARK  216  A    between atoms: _555  and  _556
REMARK  217  A    between atoms: _556  and  _557
REMARK  218  A    between atoms: _566  and  _568
REMARK  219  A    between atoms: _568  and  _569
REMARK  220  A    between atoms: _571  and  _573
REMARK  221  A    between atoms: _573  and  _574
REMARK  222  A    between atoms: _573  and  _576
REMARK  223  A    between atoms: _576  and  _577
REMARK  224  A    between atoms: _582  and  _584
REMARK  225  A    between atoms: _584  and  _585
REMARK  226  A    between atoms: _587  and  _589
REMARK  227  A    between atoms: _589  and  _590
REMARK  228  A    between atoms: _593  and  _595
REMARK  229  A    between atoms: _595  and  _596
REMARK  230  A    between atoms: _598  and  _600
REMARK  231  A    between atoms: _600  and  _601
REMARK  232  A    between atoms: _600  and  _603
REMARK  233  A    between atoms: _603  and  _604
REMARK  234  A    between atoms: _604  and  _605
REMARK  235  A    between atoms: _605  and  _606
REMARK  236  A    between atoms: _615  and  _617
REMARK  237  A    between atoms: _617  and  _618
REMARK  238  A    between atoms: _617  and  _620
REMARK  239  A    between atoms: _620  and  _621
REMARK  240  A    between atoms: _624  and  _626
REMARK  241  A    between atoms: _626  and  _627
REMARK  242  A    between atoms: _626  and  _629
REMARK  243  A    between atoms: _629  and  _630
REMARK                            x       y       z     vdW  Elec       q    Type
REMARK                         _______ _______ _______ _____ _____    ______ ____
ROOT
ATOM      1  O   HOH     1     -10.635  42.165  16.030  0.00  0.00    +0.000 OA
ENDROOT
TORSDOF 0
REMARK  Name = ../refined-set-2016/1ppi/1ppi_pocket.pdb
REMARK  243 active torsions:
REMARK  status: ('A' for Active; 'I' for Inactive)
REMARK    1  A    between atoms: _1  and  _3
REMARK    2  A    between atoms: _3  and  _4
REMARK    3  A    between atoms: _3  and  _6
REMARK    4  A    between atoms: _6  and  _7
REMARK    5  A    between atoms: _12  and  _14
REMARK    6  A    between atoms: _14  and  _15
REMARK    7  A    between atoms: _14  and  _17
REMARK    8  A    between atoms: _17  and  _18
REMARK    9  A    between atoms: _24  and  _26
REMARK   10  A    between atoms: _26  and  _27
REMARK   11  A    between atoms: _26  and  _29
REMARK   12  A    between atoms: _29  and  _30
REMARK   13  A    between atoms: _30  and  _31
REMARK   14  A    between atoms: _37  and  _38
REMARK   15  A    between atoms: _43  and  _45
REMARK   16  A    between atoms: _45  and  _46
REMARK   17  A    between atoms: _45  and  _48
REMARK   18  A    between atoms: _48  and  _49
REMARK   19  A    between atoms: _54  and  _56
REMARK   20  A    between atoms: _56  and  _57
REMARK   21  A    between atoms: _56  and  _59
REMARK   22  A    between atoms: _62  and  _64
REMARK   23  A    between atoms: _64  and  _65
REMARK   24  A    between atoms: _64  and  _67
REMARK   25  A    between atoms: _71  and  _72
REMARK   26  A    between atoms: _78  and  _79
REMARK   27  A    between atoms: _84  and  _86
REMARK   28  A    between atoms: _86  and  _87
REMARK   29  A    between atoms: _86  and  _89
REMARK   30  A    between atoms: _89  and  _90
REMARK   31  A    between atoms: _100  and  _102
REMARK   32  A    between atoms: _102  and  _103
REMARK   33  A    between atoms: _102  and  _105
REMARK   34  A    between atoms: _105  and  _106
REMARK   35  A    between atoms: _116  and  _118
REMARK   36  A    between atoms: _118  and  _119
REMARK   37  A    between atoms: _118  and  _121
REMARK   38  A    between atoms: _121  and  _122
REMARK   39  A    between atoms: _122  and  _123
REMARK   40  A    between atoms: _126  and  _128
REMARK   41  A    between atoms: _128  and  _129
REMARK   42  A    between atoms: _128  and  _131
REMARK   43  A    between atoms: _131  and  _132
REMARK   44  A    between atoms: _132  and  _133
REMARK   45  A    between atoms: _133  and  _134
REMARK   46  A    between atoms: _143  and  _145
REMARK   47  A    between atoms: _145  and  _146
REMARK   48  A    between atoms: _145  and  _148
REMARK   49  A    between atoms: _148  and  _149
REMARK   50  A    between atoms: _154  and  _155
REMARK   51  A    between atoms: _157  and  _159
REMARK   52  A    between atoms: _159  and  _160
REMARK   53  A    between atoms: _159  and  _162
REMARK   54  A    between atoms: _162  and  _163
REMARK   55  A    between atoms: _163  and  _164
REMARK   56  A    between atoms: _170  and  _171
REMARK   57  A    between atoms: _176  and  _178
REMARK   58  A    between atoms: _178  and  _179
REMARK   59  A    between atoms: _178  and  _181
REMARK   60  A    between atoms: _181  and  _182
REMARK   61  A    between atoms: _185  and  _187
REMARK   62  A    between atoms: _187  and  _188
REMARK   63  A    between atoms: _191  and  _193
REMARK   64  A    between atoms: _193  and  _194
REMARK   65  A    between atoms: _193  and  _196
REMARK   66  A    between atoms: _199  and  _201
REMARK   67  A    between atoms: _201  and  _202
REMARK   68  A    between atoms: _201  and  _204
REMARK   69  A    between atoms: _204  and  _205
REMARK   70  A    between atoms: _208  and  _210
REMARK   71  A    between atoms: _210  and  _211
REMARK   72  A    between atoms: _210  and  _213
REMARK   73  A    between atoms: _213  and  _214
REMARK   74  A    between atoms: _219  and  _221
REMARK   75  A    between atoms: _221  and  _222
REMARK   76  A    between atoms: _221  and  _224
REMARK   77  A    between atoms: _224  and  _225
REMARK   78  A    between atoms: _230  and  _232
REMARK   79  A    between atoms: _232  and  _233
REMARK   80  A    between atoms: _232  and  _235
REMARK   81  A    between atoms: _235  and  _236
REMARK   82  A    between atoms: _236  and  _237
REMARK   83  A    between atoms: _239  and  _241
REMARK   84  A    between atoms: _241  and  _242
REMARK   85  A    between atoms: _241  and  _244
REMARK   86  A    between atoms: _246  and  _248
REMARK   87  A    between atoms: _248  and  _249
REMARK   88  A    between atoms: _251  and  _253
REMARK   89  A    between atoms: _253  and  _254
REMARK   90  A    between atoms: _253  and  _256
REMARK   91  A    between atoms: _256  and  _257
REMARK   92  A    between atoms: _259  and  _261
REMARK   93  A    between atoms: _261  and  _262
REMARK   94  A    between atoms: _264  and  _266
REMARK   95  A    between atoms: _266  and  _267
REMARK   96  A    between atoms: _270  and  _272
REMARK   97  A    between atoms: _272  and  _273
REMARK   98  A    between atoms: _272  and  _275
REMARK   99  A    between atoms: _275  and  _276
REMARK  100  A    between atoms: _279  and  _281
REMARK  101  A    between atoms: _281  and  _282
REMARK  102  A    between atoms: _281  and  _284
REMARK  103  A    between atoms: _284  and  _285
REMARK  104  A    between atoms: _290  and  _291
REMARK  105  A    between atoms: _293  and  _295
REMARK  106  A    between atoms: _295  and  _296
REMARK  107  A    between atoms: _295  and  _298
REMARK  108  A    between atoms: _301  and  _303
REMARK  109  A    between atoms: _303  and  _304
REMARK  110  A    between atoms: _303  and  _306
REMARK  111  A    between atoms: _306  and  _307
REMARK  112  A    between atoms: _307  and  _308
REMARK  113  A    between atoms: _313  and  _315
REMARK  114  A    between atoms: _315  and  _316
REMARK  115  A    between atoms: _315  and  _318
REMARK  116  A    between atoms: _318  and  _319
REMARK  117  A    between atoms: _322  and  _324
REMARK  118  A    between atoms: _324  and  _325
REMARK  119  A    between atoms: _324  and  _327
REMARK  120  A    between atoms: _330  and  _332
REMARK  121  A    between atoms: _332  and  _333
REMARK  122  A    between atoms: _335  and  _337
REMARK  123  A    between atoms: _337  and  _338
REMARK  124  A    between atoms: _337  and  _340
REMARK  125  A    between atoms: _340  and  _341
REMARK  126  A    between atoms: _344  and  _346
REMARK  127  A    between atoms: _346  and  _347
REMARK  128  A    between atoms: _346  and  _349
REMARK  129  A    between atoms: _349  and  _350
REMARK  130  A    between atoms: _353  and  _355
REMARK  131  A    between atoms: _355  and  _356
REMARK  132  A    between atoms: _355  and  _358
REMARK  133  A    between atoms: _358  and  _359
REMARK  134  A    between atoms: _359  and  _360
REMARK  135  A    between atoms: _360  and  _361
REMARK  136  A    between atoms: _370  and  _372
REMARK  137  A    between atoms: _372  and  _373
REMARK  138  A    between atoms: _372  and  _375
REMARK  139  A    between atoms: _375  and  _376
REMARK  140  A    between atoms: _379  and  _381
REMARK  141  A    between atoms: _381  and  _382
REMARK  142  A    between atoms: _381  and  _384
REMARK  143  A    between atoms: _384  and  _385
REMARK  144  A    between atoms: _388  and  _390
REMARK  145  A    between atoms: _390  and  _391
REMARK  146  A    between atoms: _394  and  _396
REMARK  147  A    between atoms: _396  and  _397
REMARK  148  A    between atoms: _396  and  _399
REMARK  149  A    between atoms: _399  and  _400
REMARK  150  A    between atoms: _402  and  _404
REMARK  151  A    between atoms: _404  and  _405
REMARK  152  A    between atoms: _404  and  _407
REMARK  153  A    between atoms: _407  and  _408
REMARK  154  A    between atoms: _408  and  _409
REMARK  155  A    between atoms: _409  and  _410
REMARK  156  A    between atoms: _410  and  _411
REMARK  157  A    between atoms: _415  and  _417
REMARK  158  A    between atoms: _417  and  _418
REMARK  159  A    between atoms: _417  and  _420
REMARK  160  A    between atoms: _420  and  _421
REMARK  161  A    between atoms: _426  and  _428
REMARK  162  A    between atoms: _428  and  _429
REMARK  163  A    between atoms: _428  and  _431
REMARK  164  A    between atoms: _431  and  _432
REMARK  165  A    between atoms: _432  and  _433
REMARK  166  A    between atoms: _436  and  _438
REMARK  167  A    between atoms: _438  and  _439
REMARK  168  A    between atoms: _438  and  _441
REMARK  169  A    between atoms: _444  and  _446
REMARK  170  A    between atoms: _446  and  _447
REMARK  171  A    between atoms: _446  and  _449
REMARK  172  A    between atoms: _449  and  _450
REMARK  173  A    between atoms: _453  and  _455
REMARK  174  A    between atoms: _455  and  _456
REMARK  175  A    between atoms: _455  and  _458
REMARK  176  A    between atoms: _458  and  _459
REMARK  177  A    between atoms: _462  and  _464
REMARK  178  A    between atoms: _464  and  _465
REMARK  179  A    between atoms: _464  and  _467
REMARK  180  A    between atoms: _467  and  _468
REMARK  181  A    between atoms: _471  and  _473
REMARK  182  A    between atoms: _473  and  _474
REMARK  183  A    between atoms: _476  and  _478
REMARK  184  A    between atoms: _478  and  _479
REMARK  185  A    between atoms: _478  and  _481
REMARK  186  A    between atoms: _481  and  _482
REMARK  187  A    between atoms: _482  and  _483
REMARK  188  A    between atoms: _486  and  _488
REMARK  189  A    between atoms: _488  and  _489
REMARK  190  A    between atoms: _488  and  _491
REMARK  191  A    between atoms: _491  and  _492
REMARK  192  A    between atoms: _495  and  _497
REMARK  193  A    between atoms: _497  and  _498
REMARK  194  A    between atoms: _497  and  _500
REMARK  195  A    between atoms: _500  and  _501
REMARK  196  A    between atoms: _507  and  _509
REMARK  197  A    between atoms: _509  and  _510
REMARK  198  A    between atoms: _509  and  _512
REMARK  199  A    between atoms: _512  and  _513
REMARK  200  A    between atoms: _518  and  _520
REMARK  201  A    between atoms: _520  and  _521
REMARK  202  A    between atoms: _520  and  _523
REMARK  203  A    between atoms: _523  and  _524
REMARK  204  A    between atoms: _529  and  _531
REMARK  205  A    between atoms: _531  and  _532
REMARK  206  A    between atoms: _531  and  _534
REMARK  207  A    between atoms: _534  and  _535
REMARK  208  A    between atoms: _538  and  _540
REMARK  209  A    between atoms: _540  and  _541
REMARK  210  A    between atoms: _540  and  _543
REMARK  211  A    between atoms: _543  and  _544
REMARK  212  A    between atoms: _549  and  _551
REMARK  213  A    between atoms: _551  and  _552
REMARK  214  A    between atoms: _551  and  _554
REMARK  215  A    between atoms: _554  and  _555
REMARK  216  A    between atoms: _555  and  _556
REMARK  217  A    between atoms: _556  and  _557
REMARK  218  A    between atoms: _566  and  _568
REMARK  219  A    between atoms: _568  and  _569
REMARK  220  A    between atoms: _571  and  _573
REMARK  221  A    between atoms: _573  and  _574
REMARK  222  A    between atoms: _573  and  _576
REMARK  223  A    between atoms: _576  and  _577
REMARK  224  A    between atoms: _582  and  _584
REMARK  225  A    between atoms: _584  and  _585
REMARK  226  A    between atoms: _587  and  _589
REMARK  227  A    between atoms: _589  and  _590
REMARK  228  A    between atoms: _593  and  _595
REMARK  229  A    between atoms: _595  and  _596
REMARK  230  A    between atoms: _598  and  _600
REMARK  231  A    between atoms: _600  and  _601
REMARK  232  A    between atoms: _600  and  _603
REMARK  233  A    between atoms: _603  and  _604
REMARK  234  A    between atoms: _604  and  _605
REMARK  235  A    between atoms: _605  and  _606
REMARK  236  A    between atoms: _615  and  _617
REMARK  237  A    between atoms: _617  and  _618
REMARK  238  A    between atoms: _617  and  _620
REMARK  239  A    between atoms: _620  and  _621
REMARK  240  A    between atoms: _624  and  _626
REMARK  241  A    between atoms: _626  and  _627
REMARK  242  A    between atoms: _626  and  _629
REMARK  243  A    between atoms: _629  and  _630
REMARK                            x       y       z     vdW  Elec       q    Type
REMARK                         _______ _______ _______ _____ _____    ______ ____
ROOT
ATOM      1  O   HOH     1      -5.969  37.935  15.845  0.00  0.00    +0.000 OA
ENDROOT
TORSDOF 0
REMARK  Name = ../refined-set-2016/1ppi/1ppi_pocket.pdb
REMARK  243 active torsions:
REMARK  status: ('A' for Active; 'I' for Inactive)
REMARK    1  A    between atoms: _1  and  _3
REMARK    2  A    between atoms: _3  and  _4
REMARK    3  A    between atoms: _3  and  _6
REMARK    4  A    between atoms: _6  and  _7
REMARK    5  A    between atoms: _12  and  _14
REMARK    6  A    between atoms: _14  and  _15
REMARK    7  A    between atoms: _14  and  _17
REMARK    8  A    between atoms: _17  and  _18
REMARK    9  A    between atoms: _24  and  _26
REMARK   10  A    between atoms: _26  and  _27
REMARK   11  A    between atoms: _26  and  _29
REMARK   12  A    between atoms: _29  and  _30
REMARK   13  A    between atoms: _30  and  _31
REMARK   14  A    between atoms: _37  and  _38
REMARK   15  A    between atoms: _43  and  _45
REMARK   16  A    between atoms: _45  and  _46
REMARK   17  A    between atoms: _45  and  _48
REMARK   18  A    between atoms: _48  and  _49
REMARK   19  A    between atoms: _54  and  _56
REMARK   20  A    between atoms: _56  and  _57
REMARK   21  A    between atoms: _56  and  _59
REMARK   22  A    between atoms: _62  and  _64
REMARK   23  A    between atoms: _64  and  _65
REMARK   24  A    between atoms: _64  and  _67
REMARK   25  A    between atoms: _71  and  _72
REMARK   26  A    between atoms: _78  and  _79
REMARK   27  A    between atoms: _84  and  _86
REMARK   28  A    between atoms: _86  and  _87
REMARK   29  A    between atoms: _86  and  _89
REMARK   30  A    between atoms: _89  and  _90
REMARK   31  A    between atoms: _100  and  _102
REMARK   32  A    between atoms: _102  and  _103
REMARK   33  A    between atoms: _102  and  _105
REMARK   34  A    between atoms: _105  and  _106
REMARK   35  A    between atoms: _116  and  _118
REMARK   36  A    between atoms: _118  and  _119
REMARK   37  A    between atoms: _118  and  _121
REMARK   38  A    between atoms: _121  and  _122
REMARK   39  A    between atoms: _122  and  _123
REMARK   40  A    between atoms: _126  and  _128
REMARK   41  A    between atoms: _128  and  _129
REMARK   42  A    between atoms: _128  and  _131
REMARK   43  A    between atoms: _131  and  _132
REMARK   44  A    between atoms: _132  and  _133
REMARK   45  A    between atoms: _133  and  _134
REMARK   46  A    between atoms: _143  and  _145
REMARK   47  A    between atoms: _145  and  _146
REMARK   48  A    between atoms: _145  and  _148
REMARK   49  A    between atoms: _148  and  _149
REMARK   50  A    between atoms: _154  and  _155
REMARK   51  A    between atoms: _157  and  _159
REMARK   52  A    between atoms: _159  and  _160
REMARK   53  A    between atoms: _159  and  _162
REMARK   54  A    between atoms: _162  and  _163
REMARK   55  A    between atoms: _163  and  _164
REMARK   56  A    between atoms: _170  and  _171
REMARK   57  A    between atoms: _176  and  _178
REMARK   58  A    between atoms: _178  and  _179
REMARK   59  A    between atoms: _178  and  _181
REMARK   60  A    between atoms: _181  and  _182
REMARK   61  A    between atoms: _185  and  _187
REMARK   62  A    between atoms: _187  and  _188
REMARK   63  A    between atoms: _191  and  _193
REMARK   64  A    between atoms: _193  and  _194
REMARK   65  A    between atoms: _193  and  _196
REMARK   66  A    between atoms: _199  and  _201
REMARK   67  A    between atoms: _201  and  _202
REMARK   68  A    between atoms: _201  and  _204
REMARK   69  A    between atoms: _204  and  _205
REMARK   70  A    between atoms: _208  and  _210
REMARK   71  A    between atoms: _210  and  _211
REMARK   72  A    between atoms: _210  and  _213
REMARK   73  A    between atoms: _213  and  _214
REMARK   74  A    between atoms: _219  and  _221
REMARK   75  A    between atoms: _221  and  _222
REMARK   76  A    between atoms: _221  and  _224
REMARK   77  A    between atoms: _224  and  _225
REMARK   78  A    between atoms: _230  and  _232
REMARK   79  A    between atoms: _232  and  _233
REMARK   80  A    between atoms: _232  and  _235
REMARK   81  A    between atoms: _235  and  _236
REMARK   82  A    between atoms: _236  and  _237
REMARK   83  A    between atoms: _239  and  _241
REMARK   84  A    between atoms: _241  and  _242
REMARK   85  A    between atoms: _241  and  _244
REMARK   86  A    between atoms: _246  and  _248
REMARK   87  A    between atoms: _248  and  _249
REMARK   88  A    between atoms: _251  and  _253
REMARK   89  A    between atoms: _253  and  _254
REMARK   90  A    between atoms: _253  and  _256
REMARK   91  A    between atoms: _256  and  _257
REMARK   92  A    between atoms: _259  and  _261
REMARK   93  A    between atoms: _261  and  _262
REMARK   94  A    between atoms: _264  and  _266
REMARK   95  A    between atoms: _266  and  _267
REMARK   96  A    between atoms: _270  and  _272
REMARK   97  A    between atoms: _272  and  _273
REMARK   98  A    between atoms: _272  and  _275
REMARK   99  A    between atoms: _275  and  _276
REMARK  100  A    between atoms: _279  and  _281
REMARK  101  A    between atoms: _281  and  _282
REMARK  102  A    between atoms: _281  and  _284
REMARK  103  A    between atoms: _284  and  _285
REMARK  104  A    between atoms: _290  and  _291
REMARK  105  A    between atoms: _293  and  _295
REMARK  106  A    between atoms: _295  and  _296
REMARK  107  A    between atoms: _295  and  _298
REMARK  108  A    between atoms: _301  and  _303
REMARK  109  A    between atoms: _303  and  _304
REMARK  110  A    between atoms: _303  and  _306
REMARK  111  A    between atoms: _306  and  _307
REMARK  112  A    between atoms: _307  and  _308
REMARK  113  A    between atoms: _313  and  _315
REMARK  114  A    between atoms: _315  and  _316
REMARK  115  A    between atoms: _315  and  _318
REMARK  116  A    between atoms: _318  and  _319
REMARK  117  A    between atoms: _322  and  _324
REMARK  118  A    between atoms: _324  and  _325
REMARK  119  A    between atoms: _324  and  _327
REMARK  120  A    between atoms: _330  and  _332
REMARK  121  A    between atoms: _332  and  _333
REMARK  122  A    between atoms: _335  and  _337
REMARK  123  A    between atoms: _337  and  _338
REMARK  124  A    between atoms: _337  and  _340
REMARK  125  A    between atoms: _340  and  _341
REMARK  126  A    between atoms: _344  and  _346
REMARK  127  A    between atoms: _346  and  _347
REMARK  128  A    between atoms: _346  and  _349
REMARK  129  A    between atoms: _349  and  _350
REMARK  130  A    between atoms: _353  and  _355
REMARK  131  A    between atoms: _355  and  _356
REMARK  132  A    between atoms: _355  and  _358
REMARK  133  A    between atoms: _358  and  _359
REMARK  134  A    between atoms: _359  and  _360
REMARK  135  A    between atoms: _360  and  _361
REMARK  136  A    between atoms: _370  and  _372
REMARK  137  A    between atoms: _372  and  _373
REMARK  138  A    between atoms: _372  and  _375
REMARK  139  A    between atoms: _375  and  _376
REMARK  140  A    between atoms: _379  and  _381
REMARK  141  A    between atoms: _381  and  _382
REMARK  142  A    between atoms: _381  and  _384
REMARK  143  A    between atoms: _384  and  _385
REMARK  144  A    between atoms: _388  and  _390
REMARK  145  A    between atoms: _390  and  _391
REMARK  146  A    between atoms: _394  and  _396
REMARK  147  A    between atoms: _396  and  _397
REMARK  148  A    between atoms: _396  and  _399
REMARK  149  A    between atoms: _399  and  _400
REMARK  150  A    between atoms: _402  and  _404
REMARK  151  A    between atoms: _404  and  _405
REMARK  152  A    between atoms: _404  and  _407
REMARK  153  A    between atoms: _407  and  _408
REMARK  154  A    between atoms: _408  and  _409
REMARK  155  A    between atoms: _409  and  _410
REMARK  156  A    between atoms: _410  and  _411
REMARK  157  A    between atoms: _415  and  _417
REMARK  158  A    between atoms: _417  and  _418
REMARK  159  A    between atoms: _417  and  _420
REMARK  160  A    between atoms: _420  and  _421
REMARK  161  A    between atoms: _426  and  _428
REMARK  162  A    between atoms: _428  and  _429
REMARK  163  A    between atoms: _428  and  _431
REMARK  164  A    between atoms: _431  and  _432
REMARK  165  A    between atoms: _432  and  _433
REMARK  166  A    between atoms: _436  and  _438
REMARK  167  A    between atoms: _438  and  _439
REMARK  168  A    between atoms: _438  and  _441
REMARK  169  A    between atoms: _444  and  _446
REMARK  170  A    between atoms: _446  and  _447
REMARK  171  A    between atoms: _446  and  _449
REMARK  172  A    between atoms: _449  and  _450
REMARK  173  A    between atoms: _453  and  _455
REMARK  174  A    between atoms: _455  and  _456
REMARK  175  A    between atoms: _455  and  _458
REMARK  176  A    between atoms: _458  and  _459
REMARK  177  A    between atoms: _462  and  _464
REMARK  178  A    between atoms: _464  and  _465
REMARK  179  A    between atoms: _464  and  _467
REMARK  180  A    between atoms: _467  and  _468
REMARK  181  A    between atoms: _471  and  _473
REMARK  182  A    between atoms: _473  and  _474
REMARK  183  A    between atoms: _476  and  _478
REMARK  184  A    between atoms: _478  and  _479
REMARK  185  A    between atoms: _478  and  _481
REMARK  186  A    between atoms: _481  and  _482
REMARK  187  A    between atoms: _482  and  _483
REMARK  188  A    between atoms: _486  and  _488
REMARK  189  A    between atoms: _488  and  _489
REMARK  190  A    between atoms: _488  and  _491
REMARK  191  A    between atoms: _491  and  _492
REMARK  192  A    between atoms: _495  and  _497
REMARK  193  A    between atoms: _497  and  _498
REMARK  194  A    between atoms: _497  and  _500
REMARK  195  A    between atoms: _500  and  _501
REMARK  196  A    between atoms: _507  and  _509
REMARK  197  A    between atoms: _509  and  _510
REMARK  198  A    between atoms: _509  and  _512
REMARK  199  A    between atoms: _512  and  _513
REMARK  200  A    between atoms: _518  and  _520
REMARK  201  A    between atoms: _520  and  _521
REMARK  202  A    between atoms: _520  and  _523
REMARK  203  A    between atoms: _523  and  _524
REMARK  204  A    between atoms: _529  and  _531
REMARK  205  A    between atoms: _531  and  _532
REMARK  206  A    between atoms: _531  and  _534
REMARK  207  A    between atoms: _534  and  _535
REMARK  208  A    between atoms: _538  and  _540
REMARK  209  A    between atoms: _540  and  _541
REMARK  210  A    between atoms: _540  and  _543
REMARK  211  A    between atoms: _543  and  _544
REMARK  212  A    between atoms: _549  and  _551
REMARK  213  A    between atoms: _551  and  _552
REMARK  214  A    between atoms: _551  and  _554
REMARK  215  A    between atoms: _554  and  _555
REMARK  216  A    between atoms: _555  and  _556
REMARK  217  A    between atoms: _556  and  _557
REMARK  218  A    between atoms: _566  and  _568
REMARK  219  A    between atoms: _568  and  _569
REMARK  220  A    between atoms: _571  and  _573
REMARK  221  A    between atoms: _573  and  _574
REMARK  222  A    between atoms: _573  and  _576
REMARK  223  A    between atoms: _576  and  _577
REMARK  224  A    between atoms: _582  and  _584
REMARK  225  A    between atoms: _584  and  _585
REMARK  226  A    between atoms: _587  and  _589
REMARK  227  A    between atoms: _589  and  _590
REMARK  228  A    between atoms: _593  and  _595
REMARK  229  A    between atoms: _595  and  _596
REMARK  230  A    between atoms: _598  and  _600
REMARK  231  A    between atoms: _600  and  _601
REMARK  232  A    between atoms: _600  and  _603
REMARK  233  A    between atoms: _603  and  _604
REMARK  234  A    between atoms: _604  and  _605
REMARK  235  A    between atoms: _605  and  _606
REMARK  236  A    between atoms: _615  and  _617
REMARK  237  A    between atoms: _617  and  _618
REMARK  238  A    between atoms: _617  and  _620
REMARK  239  A    between atoms: _620  and  _621
REMARK  240  A    between atoms: _624  and  _626
REMARK  241  A    between atoms: _626  and  _627
REMARK  242  A    between atoms: _626  and  _629
REMARK  243  A    between atoms: _629  and  _630
REMARK                            x       y       z     vdW  Elec       q    Type
REMARK                         _______ _______ _______ _____ _____    ______ ____
ROOT
ATOM      1  O   HOH     1      -6.938  45.536  10.798  0.00  0.00    +0.000 OA
ENDROOT
TORSDOF 0
REMARK  Name = ../refined-set-2016/1ppi/1ppi_pocket.pdb
REMARK  243 active torsions:
REMARK  status: ('A' for Active; 'I' for Inactive)
REMARK    1  A    between atoms: _1  and  _3
REMARK    2  A    between atoms: _3  and  _4
REMARK    3  A    between atoms: _3  and  _6
REMARK    4  A    between atoms: _6  and  _7
REMARK    5  A    between atoms: _12  and  _14
REMARK    6  A    between atoms: _14  and  _15
REMARK    7  A    between atoms: _14  and  _17
REMARK    8  A    between atoms: _17  and  _18
REMARK    9  A    between atoms: _24  and  _26
REMARK   10  A    between atoms: _26  and  _27
REMARK   11  A    between atoms: _26  and  _29
REMARK   12  A    between atoms: _29  and  _30
REMARK   13  A    between atoms: _30  and  _31
REMARK   14  A    between atoms: _37  and  _38
REMARK   15  A    between atoms: _43  and  _45
REMARK   16  A    between atoms: _45  and  _46
REMARK   17  A    between atoms: _45  and  _48
REMARK   18  A    between atoms: _48  and  _49
REMARK   19  A    between atoms: _54  and  _56
REMARK   20  A    between atoms: _56  and  _57
REMARK   21  A    between atoms: _56  and  _59
REMARK   22  A    between atoms: _62  and  _64
REMARK   23  A    between atoms: _64  and  _65
REMARK   24  A    between atoms: _64  and  _67
REMARK   25  A    between atoms: _71  and  _72
REMARK   26  A    between atoms: _78  and  _79
REMARK   27  A    between atoms: _84  and  _86
REMARK   28  A    between atoms: _86  and  _87
REMARK   29  A    between atoms: _86  and  _89
REMARK   30  A    between atoms: _89  and  _90
REMARK   31  A    between atoms: _100  and  _102
REMARK   32  A    between atoms: _102  and  _103
REMARK   33  A    between atoms: _102  and  _105
REMARK   34  A    between atoms: _105  and  _106
REMARK   35  A    between atoms: _116  and  _118
REMARK   36  A    between atoms: _118  and  _119
REMARK   37  A    between atoms: _118  and  _121
REMARK   38  A    between atoms: _121  and  _122
REMARK   39  A    between atoms: _122  and  _123
REMARK   40  A    between atoms: _126  and  _128
REMARK   41  A    between atoms: _128  and  _129
REMARK   42  A    between atoms: _128  and  _131
REMARK   43  A    between atoms: _131  and  _132
REMARK   44  A    between atoms: _132  and  _133
REMARK   45  A    between atoms: _133  and  _134
REMARK   46  A    between atoms: _143  and  _145
REMARK   47  A    between atoms: _145  and  _146
REMARK   48  A    between atoms: _145  and  _148
REMARK   49  A    between atoms: _148  and  _149
REMARK   50  A    between atoms: _154  and  _155
REMARK   51  A    between atoms: _157  and  _159
REMARK   52  A    between atoms: _159  and  _160
REMARK   53  A    between atoms: _159  and  _162
REMARK   54  A    between atoms: _162  and  _163
REMARK   55  A    between atoms: _163  and  _164
REMARK   56  A    between atoms: _170  and  _171
REMARK   57  A    between atoms: _176  and  _178
REMARK   58  A    between atoms: _178  and  _179
REMARK   59  A    between atoms: _178  and  _181
REMARK   60  A    between atoms: _181  and  _182
REMARK   61  A    between atoms: _185  and  _187
REMARK   62  A    between atoms: _187  and  _188
REMARK   63  A    between atoms: _191  and  _193
REMARK   64  A    between atoms: _193  and  _194
REMARK   65  A    between atoms: _193  and  _196
REMARK   66  A    between atoms: _199  and  _201
REMARK   67  A    between atoms: _201  and  _202
REMARK   68  A    between atoms: _201  and  _204
REMARK   69  A    between atoms: _204  and  _205
REMARK   70  A    between atoms: _208  and  _210
REMARK   71  A    between atoms: _210  and  _211
REMARK   72  A    between atoms: _210  and  _213
REMARK   73  A    between atoms: _213  and  _214
REMARK   74  A    between atoms: _219  and  _221
REMARK   75  A    between atoms: _221  and  _222
REMARK   76  A    between atoms: _221  and  _224
REMARK   77  A    between atoms: _224  and  _225
REMARK   78  A    between atoms: _230  and  _232
REMARK   79  A    between atoms: _232  and  _233
REMARK   80  A    between atoms: _232  and  _235
REMARK   81  A    between atoms: _235  and  _236
REMARK   82  A    between atoms: _236  and  _237
REMARK   83  A    between atoms: _239  and  _241
REMARK   84  A    between atoms: _241  and  _242
REMARK   85  A    between atoms: _241  and  _244
REMARK   86  A    between atoms: _246  and  _248
REMARK   87  A    between atoms: _248  and  _249
REMARK   88  A    between atoms: _251  and  _253
REMARK   89  A    between atoms: _253  and  _254
REMARK   90  A    between atoms: _253  and  _256
REMARK   91  A    between atoms: _256  and  _257
REMARK   92  A    between atoms: _259  and  _261
REMARK   93  A    between atoms: _261  and  _262
REMARK   94  A    between atoms: _264  and  _266
REMARK   95  A    between atoms: _266  and  _267
REMARK   96  A    between atoms: _270  and  _272
REMARK   97  A    between atoms: _272  and  _273
REMARK   98  A    between atoms: _272  and  _275
REMARK   99  A    between atoms: _275  and  _276
REMARK  100  A    between atoms: _279  and  _281
REMARK  101  A    between atoms: _281  and  _282
REMARK  102  A    between atoms: _281  and  _284
REMARK  103  A    between atoms: _284  and  _285
REMARK  104  A    between atoms: _290  and  _291
REMARK  105  A    between atoms: _293  and  _295
REMARK  106  A    between atoms: _295  and  _296
REMARK  107  A    between atoms: _295  and  _298
REMARK  108  A    between atoms: _301  and  _303
REMARK  109  A    between atoms: _303  and  _304
REMARK  110  A    between atoms: _303  and  _306
REMARK  111  A    between atoms: _306  and  _307
REMARK  112  A    between atoms: _307  and  _308
REMARK  113  A    between atoms: _313  and  _315
REMARK  114  A    between atoms: _315  and  _316
REMARK  115  A    between atoms: _315  and  _318
REMARK  116  A    between atoms: _318  and  _319
REMARK  117  A    between atoms: _322  and  _324
REMARK  118  A    between atoms: _324  and  _325
REMARK  119  A    between atoms: _324  and  _327
REMARK  120  A    between atoms: _330  and  _332
REMARK  121  A    between atoms: _332  and  _333
REMARK  122  A    between atoms: _335  and  _337
REMARK  123  A    between atoms: _337  and  _338
REMARK  124  A    between atoms: _337  and  _340
REMARK  125  A    between atoms: _340  and  _341
REMARK  126  A    between atoms: _344  and  _346
REMARK  127  A    between atoms: _346  and  _347
REMARK  128  A    between atoms: _346  and  _349
REMARK  129  A    between atoms: _349  and  _350
REMARK  130  A    between atoms: _353  and  _355
REMARK  131  A    between atoms: _355  and  _356
REMARK  132  A    between atoms: _355  and  _358
REMARK  133  A    between atoms: _358  and  _359
REMARK  134  A    between atoms: _359  and  _360
REMARK  135  A    between atoms: _360  and  _361
REMARK  136  A    between atoms: _370  and  _372
REMARK  137  A    between atoms: _372  and  _373
REMARK  138  A    between atoms: _372  and  _375
REMARK  139  A    between atoms: _375  and  _376
REMARK  140  A    between atoms: _379  and  _381
REMARK  141  A    between atoms: _381  and  _382
REMARK  142  A    between atoms: _381  and  _384
REMARK  143  A    between atoms: _384  and  _385
REMARK  144  A    between atoms: _388  and  _390
REMARK  145  A    between atoms: _390  and  _391
REMARK  146  A    between atoms: _394  and  _396
REMARK  147  A    between atoms: _396  and  _397
REMARK  148  A    between atoms: _396  and  _399
REMARK  149  A    between atoms: _399  and  _400
REMARK  150  A    between atoms: _402  and  _404
REMARK  151  A    between atoms: _404  and  _405
REMARK  152  A    between atoms: _404  and  _407
REMARK  153  A    between atoms: _407  and  _408
REMARK  154  A    between atoms: _408  and  _409
REMARK  155  A    between atoms: _409  and  _410
REMARK  156  A    between atoms: _410  and  _411
REMARK  157  A    between atoms: _415  and  _417
REMARK  158  A    between atoms: _417  and  _418
REMARK  159  A    between atoms: _417  and  _420
REMARK  160  A    between atoms: _420  and  _421
REMARK  161  A    between atoms: _426  and  _428
REMARK  162  A    between atoms: _428  and  _429
REMARK  163  A    between atoms: _428  and  _431
REMARK  164  A    between atoms: _431  and  _432
REMARK  165  A    between atoms: _432  and  _433
REMARK  166  A    between atoms: _436  and  _438
REMARK  167  A    between atoms: _438  and  _439
REMARK  168  A    between atoms: _438  and  _441
REMARK  169  A    between atoms: _444  and  _446
REMARK  170  A    between atoms: _446  and  _447
REMARK  171  A    between atoms: _446  and  _449
REMARK  172  A    between atoms: _449  and  _450
REMARK  173  A    between atoms: _453  and  _455
REMARK  174  A    between atoms: _455  and  _456
REMARK  175  A    between atoms: _455  and  _458
REMARK  176  A    between atoms: _458  and  _459
REMARK  177  A    between atoms: _462  and  _464
REMARK  178  A    between atoms: _464  and  _465
REMARK  179  A    between atoms: _464  and  _467
REMARK  180  A    between atoms: _467  and  _468
REMARK  181  A    between atoms: _471  and  _473
REMARK  182  A    between atoms: _473  and  _474
REMARK  183  A    between atoms: _476  and  _478
REMARK  184  A    between atoms: _478  and  _479
REMARK  185  A    between atoms: _478  and  _481
REMARK  186  A    between atoms: _481  and  _482
REMARK  187  A    between atoms: _482  and  _483
REMARK  188  A    between atoms: _486  and  _488
REMARK  189  A    between atoms: _488  and  _489
REMARK  190  A    between atoms: _488  and  _491
REMARK  191  A    between atoms: _491  and  _492
REMARK  192  A    between atoms: _495  and  _497
REMARK  193  A    between atoms: _497  and  _498
REMARK  194  A    between atoms: _497  and  _500
REMARK  195  A    between atoms: _500  and  _501
REMARK  196  A    between atoms: _507  and  _509
REMARK  197  A    between atoms: _509  and  _510
REMARK  198  A    between atoms: _509  and  _512
REMARK  199  A    between atoms: _512  and  _513
REMARK  200  A    between atoms: _518  and  _520
REMARK  201  A    between atoms: _520  and  _521
REMARK  202  A    between atoms: _520  and  _523
REMARK  203  A    between atoms: _523  and  _524
REMARK  204  A    between atoms: _529  and  _531
REMARK  205  A    between atoms: _531  and  _532
REMARK  206  A    between atoms: _531  and  _534
REMARK  207  A    between atoms: _534  and  _535
REMARK  208  A    between atoms: _538  and  _540
REMARK  209  A    between atoms: _540  and  _541
REMARK  210  A    between atoms: _540  and  _543
REMARK  211  A    between atoms: _543  and  _544
REMARK  212  A    between atoms: _549  and  _551
REMARK  213  A    between atoms: _551  and  _552
REMARK  214  A    between atoms: _551  and  _554
REMARK  215  A    between atoms: _554  and  _555
REMARK  216  A    between atoms: _555  and  _556
REMARK  217  A    between atoms: _556  and  _557
REMARK  218  A    between atoms: _566  and  _568
REMARK  219  A    between atoms: _568  and  _569
REMARK  220  A    between atoms: _571  and  _573
REMARK  221  A    between atoms: _573  and  _574
REMARK  222  A    between atoms: _573  and  _576
REMARK  223  A    between atoms: _576  and  _577
REMARK  224  A    between atoms: _582  and  _584
REMARK  225  A    between atoms: _584  and  _585
REMARK  226  A    between atoms: _587  and  _589
REMARK  227  A    between atoms: _589  and  _590
REMARK  228  A    between atoms: _593  and  _595
REMARK  229  A    between atoms: _595  and  _596
REMARK  230  A    between atoms: _598  and  _600
REMARK  231  A    between atoms: _600  and  _601
REMARK  232  A    between atoms: _600  and  _603
REMARK  233  A    between atoms: _603  and  _604
REMARK  234  A    between atoms: _604  and  _605
REMARK  235  A    between atoms: _605  and  _606
REMARK  236  A    between atoms: _615  and  _617
REMARK  237  A    between atoms: _617  and  _618
REMARK  238  A    between atoms: _617  and  _620
REMARK  239  A    between atoms: _620  and  _621
REMARK  240  A    between atoms: _624  and  _626
REMARK  241  A    between atoms: _626  and  _627
REMARK  242  A    between atoms: _626  and  _629
REMARK  243  A    between atoms: _629  and  _630
REMARK                            x       y       z     vdW  Elec       q    Type
REMARK                         _______ _______ _______ _____ _____    ______ ____
ROOT
ATOM      1  O   HOH     1      -4.619  43.541  13.210  0.00  0.00    +0.000 OA
ENDROOT
TORSDOF 0
REMARK  Name = ../refined-set-2016/1ppi/1ppi_pocket.pdb
REMARK  243 active torsions:
REMARK  status: ('A' for Active; 'I' for Inactive)
REMARK    1  A    between atoms: _1  and  _3
REMARK    2  A    between atoms: _3  and  _4
REMARK    3  A    between atoms: _3  and  _6
REMARK    4  A    between atoms: _6  and  _7
REMARK    5  A    between atoms: _12  and  _14
REMARK    6  A    between atoms: _14  and  _15
REMARK    7  A    between atoms: _14  and  _17
REMARK    8  A    between atoms: _17  and  _18
REMARK    9  A    between atoms: _24  and  _26
REMARK   10  A    between atoms: _26  and  _27
REMARK   11  A    between atoms: _26  and  _29
REMARK   12  A    between atoms: _29  and  _30
REMARK   13  A    between atoms: _30  and  _31
REMARK   14  A    between atoms: _37  and  _38
REMARK   15  A    between atoms: _43  and  _45
REMARK   16  A    between atoms: _45  and  _46
REMARK   17  A    between atoms: _45  and  _48
REMARK   18  A    between atoms: _48  and  _49
REMARK   19  A    between atoms: _54  and  _56
REMARK   20  A    between atoms: _56  and  _57
REMARK   21  A    between atoms: _56  and  _59
REMARK   22  A    between atoms: _62  and  _64
REMARK   23  A    between atoms: _64  and  _65
REMARK   24  A    between atoms: _64  and  _67
REMARK   25  A    between atoms: _71  and  _72
REMARK   26  A    between atoms: _78  and  _79
REMARK   27  A    between atoms: _84  and  _86
REMARK   28  A    between atoms: _86  and  _87
REMARK   29  A    between atoms: _86  and  _89
REMARK   30  A    between atoms: _89  and  _90
REMARK   31  A    between atoms: _100  and  _102
REMARK   32  A    between atoms: _102  and  _103
REMARK   33  A    between atoms: _102  and  _105
REMARK   34  A    between atoms: _105  and  _106
REMARK   35  A    between atoms: _116  and  _118
REMARK   36  A    between atoms: _118  and  _119
REMARK   37  A    between atoms: _118  and  _121
REMARK   38  A    between atoms: _121  and  _122
REMARK   39  A    between atoms: _122  and  _123
REMARK   40  A    between atoms: _126  and  _128
REMARK   41  A    between atoms: _128  and  _129
REMARK   42  A    between atoms: _128  and  _131
REMARK   43  A    between atoms: _131  and  _132
REMARK   44  A    between atoms: _132  and  _133
REMARK   45  A    between atoms: _133  and  _134
REMARK   46  A    between atoms: _143  and  _145
REMARK   47  A    between atoms: _145  and  _146
REMARK   48  A    between atoms: _145  and  _148
REMARK   49  A    between atoms: _148  and  _149
REMARK   50  A    between atoms: _154  and  _155
REMARK   51  A    between atoms: _157  and  _159
REMARK   52  A    between atoms: _159  and  _160
REMARK   53  A    between atoms: _159  and  _162
REMARK   54  A    between atoms: _162  and  _163
REMARK   55  A    between atoms: _163  and  _164
REMARK   56  A    between atoms: _170  and  _171
REMARK   57  A    between atoms: _176  and  _178
REMARK   58  A    between atoms: _178  and  _179
REMARK   59  A    between atoms: _178  and  _181
REMARK   60  A    between atoms: _181  and  _182
REMARK   61  A    between atoms: _185  and  _187
REMARK   62  A    between atoms: _187  and  _188
REMARK   63  A    between atoms: _191  and  _193
REMARK   64  A    between atoms: _193  and  _194
REMARK   65  A    between atoms: _193  and  _196
REMARK   66  A    between atoms: _199  and  _201
REMARK   67  A    between atoms: _201  and  _202
REMARK   68  A    between atoms: _201  and  _204
REMARK   69  A    between atoms: _204  and  _205
REMARK   70  A    between atoms: _208  and  _210
REMARK   71  A    between atoms: _210  and  _211
REMARK   72  A    between atoms: _210  and  _213
REMARK   73  A    between atoms: _213  and  _214
REMARK   74  A    between atoms: _219  and  _221
REMARK   75  A    between atoms: _221  and  _222
REMARK   76  A    between atoms: _221  and  _224
REMARK   77  A    between atoms: _224  and  _225
REMARK   78  A    between atoms: _230  and  _232
REMARK   79  A    between atoms: _232  and  _233
REMARK   80  A    between atoms: _232  and  _235
REMARK   81  A    between atoms: _235  and  _236
REMARK   82  A    between atoms: _236  and  _237
REMARK   83  A    between atoms: _239  and  _241
REMARK   84  A    between atoms: _241  and  _242
REMARK   85  A    between atoms: _241  and  _244
REMARK   86  A    between atoms: _246  and  _248
REMARK   87  A    between atoms: _248  and  _249
REMARK   88  A    between atoms: _251  and  _253
REMARK   89  A    between atoms: _253  and  _254
REMARK   90  A    between atoms: _253  and  _256
REMARK   91  A    between atoms: _256  and  _257
REMARK   92  A    between atoms: _259  and  _261
REMARK   93  A    between atoms: _261  and  _262
REMARK   94  A    between atoms: _264  and  _266
REMARK   95  A    between atoms: _266  and  _267
REMARK   96  A    between atoms: _270  and  _272
REMARK   97  A    between atoms: _272  and  _273
REMARK   98  A    between atoms: _272  and  _275
REMARK   99  A    between atoms: _275  and  _276
REMARK  100  A    between atoms: _279  and  _281
REMARK  101  A    between atoms: _281  and  _282
REMARK  102  A    between atoms: _281  and  _284
REMARK  103  A    between atoms: _284  and  _285
REMARK  104  A    between atoms: _290  and  _291
REMARK  105  A    between atoms: _293  and  _295
REMARK  106  A    between atoms: _295  and  _296
REMARK  107  A    between atoms: _295  and  _298
REMARK  108  A    between atoms: _301  and  _303
REMARK  109  A    between atoms: _303  and  _304
REMARK  110  A    between atoms: _303  and  _306
REMARK  111  A    between atoms: _306  and  _307
REMARK  112  A    between atoms: _307  and  _308
REMARK  113  A    between atoms: _313  and  _315
REMARK  114  A    between atoms: _315  and  _316
REMARK  115  A    between atoms: _315  and  _318
REMARK  116  A    between atoms: _318  and  _319
REMARK  117  A    between atoms: _322  and  _324
REMARK  118  A    between atoms: _324  and  _325
REMARK  119  A    between atoms: _324  and  _327
REMARK  120  A    between atoms: _330  and  _332
REMARK  121  A    between atoms: _332  and  _333
REMARK  122  A    between atoms: _335  and  _337
REMARK  123  A    between atoms: _337  and  _338
REMARK  124  A    between atoms: _337  and  _340
REMARK  125  A    between atoms: _340  and  _341
REMARK  126  A    between atoms: _344  and  _346
REMARK  127  A    between atoms: _346  and  _347
REMARK  128  A    between atoms: _346  and  _349
REMARK  129  A    between atoms: _349  and  _350
REMARK  130  A    between atoms: _353  and  _355
REMARK  131  A    between atoms: _355  and  _356
REMARK  132  A    between atoms: _355  and  _358
REMARK  133  A    between atoms: _358  and  _359
REMARK  134  A    between atoms: _359  and  _360
REMARK  135  A    between atoms: _360  and  _361
REMARK  136  A    between atoms: _370  and  _372
REMARK  137  A    between atoms: _372  and  _373
REMARK  138  A    between atoms: _372  and  _375
REMARK  139  A    between atoms: _375  and  _376
REMARK  140  A    between atoms: _379  and  _381
REMARK  141  A    between atoms: _381  and  _382
REMARK  142  A    between atoms: _381  and  _384
REMARK  143  A    between atoms: _384  and  _385
REMARK  144  A    between atoms: _388  and  _390
REMARK  145  A    between atoms: _390  and  _391
REMARK  146  A    between atoms: _394  and  _396
REMARK  147  A    between atoms: _396  and  _397
REMARK  148  A    between atoms: _396  and  _399
REMARK  149  A    between atoms: _399  and  _400
REMARK  150  A    between atoms: _402  and  _404
REMARK  151  A    between atoms: _404  and  _405
REMARK  152  A    between atoms: _404  and  _407
REMARK  153  A    between atoms: _407  and  _408
REMARK  154  A    between atoms: _408  and  _409
REMARK  155  A    between atoms: _409  and  _410
REMARK  156  A    between atoms: _410  and  _411
REMARK  157  A    between atoms: _415  and  _417
REMARK  158  A    between atoms: _417  and  _418
REMARK  159  A    between atoms: _417  and  _420
REMARK  160  A    between atoms: _420  and  _421
REMARK  161  A    between atoms: _426  and  _428
REMARK  162  A    between atoms: _428  and  _429
REMARK  163  A    between atoms: _428  and  _431
REMARK  164  A    between atoms: _431  and  _432
REMARK  165  A    between atoms: _432  and  _433
REMARK  166  A    between atoms: _436  and  _438
REMARK  167  A    between atoms: _438  and  _439
REMARK  168  A    between atoms: _438  and  _441
REMARK  169  A    between atoms: _444  and  _446
REMARK  170  A    between atoms: _446  and  _447
REMARK  171  A    between atoms: _446  and  _449
REMARK  172  A    between atoms: _449  and  _450
REMARK  173  A    between atoms: _453  and  _455
REMARK  174  A    between atoms: _455  and  _456
REMARK  175  A    between atoms: _455  and  _458
REMARK  176  A    between atoms: _458  and  _459
REMARK  177  A    between atoms: _462  and  _464
REMARK  178  A    between atoms: _464  and  _465
REMARK  179  A    between atoms: _464  and  _467
REMARK  180  A    between atoms: _467  and  _468
REMARK  181  A    between atoms: _471  and  _473
REMARK  182  A    between atoms: _473  and  _474
REMARK  183  A    between atoms: _476  and  _478
REMARK  184  A    between atoms: _478  and  _479
REMARK  185  A    between atoms: _478  and  _481
REMARK  186  A    between atoms: _481  and  _482
REMARK  187  A    between atoms: _482  and  _483
REMARK  188  A    between atoms: _486  and  _488
REMARK  189  A    between atoms: _488  and  _489
REMARK  190  A    between atoms: _488  and  _491
REMARK  191  A    between atoms: _491  and  _492
REMARK  192  A    between atoms: _495  and  _497
REMARK  193  A    between atoms: _497  and  _498
REMARK  194  A    between atoms: _497  and  _500
REMARK  195  A    between atoms: _500  and  _501
REMARK  196  A    between atoms: _507  and  _509
REMARK  197  A    between atoms: _509  and  _510
REMARK  198  A    between atoms: _509  and  _512
REMARK  199  A    between atoms: _512  and  _513
REMARK  200  A    between atoms: _518  and  _520
REMARK  201  A    between atoms: _520  and  _521
REMARK  202  A    between atoms: _520  and  _523
REMARK  203  A    between atoms: _523  and  _524
REMARK  204  A    between atoms: _529  and  _531
REMARK  205  A    between atoms: _531  and  _532
REMARK  206  A    between atoms: _531  and  _534
REMARK  207  A    between atoms: _534  and  _535
REMARK  208  A    between atoms: _538  and  _540
REMARK  209  A    between atoms: _540  and  _541
REMARK  210  A    between atoms: _540  and  _543
REMARK  211  A    between atoms: _543  and  _544
REMARK  212  A    between atoms: _549  and  _551
REMARK  213  A    between atoms: _551  and  _552
REMARK  214  A    between atoms: _551  and  _554
REMARK  215  A    between atoms: _554  and  _555
REMARK  216  A    between atoms: _555  and  _556
REMARK  217  A    between atoms: _556  and  _557
REMARK  218  A    between atoms: _566  and  _568
REMARK  219  A    between atoms: _568  and  _569
REMARK  220  A    between atoms: _571  and  _573
REMARK  221  A    between atoms: _573  and  _574
REMARK  222  A    between atoms: _573  and  _576
REMARK  223  A    between atoms: _576  and  _577
REMARK  224  A    between atoms: _582  and  _584
REMARK  225  A    between atoms: _584  and  _585
REMARK  226  A    between atoms: _587  and  _589
REMARK  227  A    between atoms: _589  and  _590
REMARK  228  A    between atoms: _593  and  _595
REMARK  229  A    between atoms: _595  and  _596
REMARK  230  A    between atoms: _598  and  _600
REMARK  231  A    between atoms: _600  and  _601
REMARK  232  A    between atoms: _600  and  _603
REMARK  233  A    between atoms: _603  and  _604
REMARK  234  A    between atoms: _604  and  _605
REMARK  235  A    between atoms: _605  and  _606
REMARK  236  A    between atoms: _615  and  _617
REMARK  237  A    between atoms: _617  and  _618
REMARK  238  A    between atoms: _617  and  _620
REMARK  239  A    between atoms: _620  and  _621
REMARK  240  A    between atoms: _624  and  _626
REMARK  241  A    between atoms: _626  and  _627
REMARK  242  A    between atoms: _626  and  _629
REMARK  243  A    between atoms: _629  and  _630
REMARK                            x       y       z     vdW  Elec       q    Type
REMARK                         _______ _______ _______ _____ _____    ______ ____
ROOT
ATOM      1  O   HOH     1      -9.101  37.390  20.217  0.00  0.00    +0.000 OA
ENDROOT
TORSDOF 0
REMARK  Name = ../refined-set-2016/1ppi/1ppi_pocket.pdb
REMARK  243 active torsions:
REMARK  status: ('A' for Active; 'I' for Inactive)
REMARK    1  A    between atoms: _1  and  _3
REMARK    2  A    between atoms: _3  and  _4
REMARK    3  A    between atoms: _3  and  _6
REMARK    4  A    between atoms: _6  and  _7
REMARK    5  A    between atoms: _12  and  _14
REMARK    6  A    between atoms: _14  and  _15
REMARK    7  A    between atoms: _14  and  _17
REMARK    8  A    between atoms: _17  and  _18
REMARK    9  A    between atoms: _24  and  _26
REMARK   10  A    between atoms: _26  and  _27
REMARK   11  A    between atoms: _26  and  _29
REMARK   12  A    between atoms: _29  and  _30
REMARK   13  A    between atoms: _30  and  _31
REMARK   14  A    between atoms: _37  and  _38
REMARK   15  A    between atoms: _43  and  _45
REMARK   16  A    between atoms: _45  and  _46
REMARK   17  A    between atoms: _45  and  _48
REMARK   18  A    between atoms: _48  and  _49
REMARK   19  A    between atoms: _54  and  _56
REMARK   20  A    between atoms: _56  and  _57
REMARK   21  A    between atoms: _56  and  _59
REMARK   22  A    between atoms: _62  and  _64
REMARK   23  A    between atoms: _64  and  _65
REMARK   24  A    between atoms: _64  and  _67
REMARK   25  A    between atoms: _71  and  _72
REMARK   26  A    between atoms: _78  and  _79
REMARK   27  A    between atoms: _84  and  _86
REMARK   28  A    between atoms: _86  and  _87
REMARK   29  A    between atoms: _86  and  _89
REMARK   30  A    between atoms: _89  and  _90
REMARK   31  A    between atoms: _100  and  _102
REMARK   32  A    between atoms: _102  and  _103
REMARK   33  A    between atoms: _102  and  _105
REMARK   34  A    between atoms: _105  and  _106
REMARK   35  A    between atoms: _116  and  _118
REMARK   36  A    between atoms: _118  and  _119
REMARK   37  A    between atoms: _118  and  _121
REMARK   38  A    between atoms: _121  and  _122
REMARK   39  A    between atoms: _122  and  _123
REMARK   40  A    between atoms: _126  and  _128
REMARK   41  A    between atoms: _128  and  _129
REMARK   42  A    between atoms: _128  and  _131
REMARK   43  A    between atoms: _131  and  _132
REMARK   44  A    between atoms: _132  and  _133
REMARK   45  A    between atoms: _133  and  _134
REMARK   46  A    between atoms: _143  and  _145
REMARK   47  A    between atoms: _145  and  _146
REMARK   48  A    between atoms: _145  and  _148
REMARK   49  A    between atoms: _148  and  _149
REMARK   50  A    between atoms: _154  and  _155
REMARK   51  A    between atoms: _157  and  _159
REMARK   52  A    between atoms: _159  and  _160
REMARK   53  A    between atoms: _159  and  _162
REMARK   54  A    between atoms: _162  and  _163
REMARK   55  A    between atoms: _163  and  _164
REMARK   56  A    between atoms: _170  and  _171
REMARK   57  A    between atoms: _176  and  _178
REMARK   58  A    between atoms: _178  and  _179
REMARK   59  A    between atoms: _178  and  _181
REMARK   60  A    between atoms: _181  and  _182
REMARK   61  A    between atoms: _185  and  _187
REMARK   62  A    between atoms: _187  and  _188
REMARK   63  A    between atoms: _191  and  _193
REMARK   64  A    between atoms: _193  and  _194
REMARK   65  A    between atoms: _193  and  _196
REMARK   66  A    between atoms: _199  and  _201
REMARK   67  A    between atoms: _201  and  _202
REMARK   68  A    between atoms: _201  and  _204
REMARK   69  A    between atoms: _204  and  _205
REMARK   70  A    between atoms: _208  and  _210
REMARK   71  A    between atoms: _210  and  _211
REMARK   72  A    between atoms: _210  and  _213
REMARK   73  A    between atoms: _213  and  _214
REMARK   74  A    between atoms: _219  and  _221
REMARK   75  A    between atoms: _221  and  _222
REMARK   76  A    between atoms: _221  and  _224
REMARK   77  A    between atoms: _224  and  _225
REMARK   78  A    between atoms: _230  and  _232
REMARK   79  A    between atoms: _232  and  _233
REMARK   80  A    between atoms: _232  and  _235
REMARK   81  A    between atoms: _235  and  _236
REMARK   82  A    between atoms: _236  and  _237
REMARK   83  A    between atoms: _239  and  _241
REMARK   84  A    between atoms: _241  and  _242
REMARK   85  A    between atoms: _241  and  _244
REMARK   86  A    between atoms: _246  and  _248
REMARK   87  A    between atoms: _248  and  _249
REMARK   88  A    between atoms: _251  and  _253
REMARK   89  A    between atoms: _253  and  _254
REMARK   90  A    between atoms: _253  and  _256
REMARK   91  A    between atoms: _256  and  _257
REMARK   92  A    between atoms: _259  and  _261
REMARK   93  A    between atoms: _261  and  _262
REMARK   94  A    between atoms: _264  and  _266
REMARK   95  A    between atoms: _266  and  _267
REMARK   96  A    between atoms: _270  and  _272
REMARK   97  A    between atoms: _272  and  _273
REMARK   98  A    between atoms: _272  and  _275
REMARK   99  A    between atoms: _275  and  _276
REMARK  100  A    between atoms: _279  and  _281
REMARK  101  A    between atoms: _281  and  _282
REMARK  102  A    between atoms: _281  and  _284
REMARK  103  A    between atoms: _284  and  _285
REMARK  104  A    between atoms: _290  and  _291
REMARK  105  A    between atoms: _293  and  _295
REMARK  106  A    between atoms: _295  and  _296
REMARK  107  A    between atoms: _295  and  _298
REMARK  108  A    between atoms: _301  and  _303
REMARK  109  A    between atoms: _303  and  _304
REMARK  110  A    between atoms: _303  and  _306
REMARK  111  A    between atoms: _306  and  _307
REMARK  112  A    between atoms: _307  and  _308
REMARK  113  A    between atoms: _313  and  _315
REMARK  114  A    between atoms: _315  and  _316
REMARK  115  A    between atoms: _315  and  _318
REMARK  116  A    between atoms: _318  and  _319
REMARK  117  A    between atoms: _322  and  _324
REMARK  118  A    between atoms: _324  and  _325
REMARK  119  A    between atoms: _324  and  _327
REMARK  120  A    between atoms: _330  and  _332
REMARK  121  A    between atoms: _332  and  _333
REMARK  122  A    between atoms: _335  and  _337
REMARK  123  A    between atoms: _337  and  _338
REMARK  124  A    between atoms: _337  and  _340
REMARK  125  A    between atoms: _340  and  _341
REMARK  126  A    between atoms: _344  and  _346
REMARK  127  A    between atoms: _346  and  _347
REMARK  128  A    between atoms: _346  and  _349
REMARK  129  A    between atoms: _349  and  _350
REMARK  130  A    between atoms: _353  and  _355
REMARK  131  A    between atoms: _355  and  _356
REMARK  132  A    between atoms: _355  and  _358
REMARK  133  A    between atoms: _358  and  _359
REMARK  134  A    between atoms: _359  and  _360
REMARK  135  A    between atoms: _360  and  _361
REMARK  136  A    between atoms: _370  and  _372
REMARK  137  A    between atoms: _372  and  _373
REMARK  138  A    between atoms: _372  and  _375
REMARK  139  A    between atoms: _375  and  _376
REMARK  140  A    between atoms: _379  and  _381
REMARK  141  A    between atoms: _381  and  _382
REMARK  142  A    between atoms: _381  and  _384
REMARK  143  A    between atoms: _384  and  _385
REMARK  144  A    between atoms: _388  and  _390
REMARK  145  A    between atoms: _390  and  _391
REMARK  146  A    between atoms: _394  and  _396
REMARK  147  A    between atoms: _396  and  _397
REMARK  148  A    between atoms: _396  and  _399
REMARK  149  A    between atoms: _399  and  _400
REMARK  150  A    between atoms: _402  and  _404
REMARK  151  A    between atoms: _404  and  _405
REMARK  152  A    between atoms: _404  and  _407
REMARK  153  A    between atoms: _407  and  _408
REMARK  154  A    between atoms: _408  and  _409
REMARK  155  A    between atoms: _409  and  _410
REMARK  156  A    between atoms: _410  and  _411
REMARK  157  A    between atoms: _415  and  _417
REMARK  158  A    between atoms: _417  and  _418
REMARK  159  A    between atoms: _417  and  _420
REMARK  160  A    between atoms: _420  and  _421
REMARK  161  A    between atoms: _426  and  _428
REMARK  162  A    between atoms: _428  and  _429
REMARK  163  A    between atoms: _428  and  _431
REMARK  164  A    between atoms: _431  and  _432
REMARK  165  A    between atoms: _432  and  _433
REMARK  166  A    between atoms: _436  and  _438
REMARK  167  A    between atoms: _438  and  _439
REMARK  168  A    between atoms: _438  and  _441
REMARK  169  A    between atoms: _444  and  _446
REMARK  170  A    between atoms: _446  and  _447
REMARK  171  A    between atoms: _446  and  _449
REMARK  172  A    between atoms: _449  and  _450
REMARK  173  A    between atoms: _453  and  _455
REMARK  174  A    between atoms: _455  and  _456
REMARK  175  A    between atoms: _455  and  _458
REMARK  176  A    between atoms: _458  and  _459
REMARK  177  A    between atoms: _462  and  _464
REMARK  178  A    between atoms: _464  and  _465
REMARK  179  A    between atoms: _464  and  _467
REMARK  180  A    between atoms: _467  and  _468
REMARK  181  A    between atoms: _471  and  _473
REMARK  182  A    between atoms: _473  and  _474
REMARK  183  A    between atoms: _476  and  _478
REMARK  184  A    between atoms: _478  and  _479
REMARK  185  A    between atoms: _478  and  _481
REMARK  186  A    between atoms: _481  and  _482
REMARK  187  A    between atoms: _482  and  _483
REMARK  188  A    between atoms: _486  and  _488
REMARK  189  A    between atoms: _488  and  _489
REMARK  190  A    between atoms: _488  and  _491
REMARK  191  A    between atoms: _491  and  _492
REMARK  192  A    between atoms: _495  and  _497
REMARK  193  A    between atoms: _497  and  _498
REMARK  194  A    between atoms: _497  and  _500
REMARK  195  A    between atoms: _500  and  _501
REMARK  196  A    between atoms: _507  and  _509
REMARK  197  A    between atoms: _509  and  _510
REMARK  198  A    between atoms: _509  and  _512
REMARK  199  A    between atoms: _512  and  _513
REMARK  200  A    between atoms: _518  and  _520
REMARK  201  A    between atoms: _520  and  _521
REMARK  202  A    between atoms: _520  and  _523
REMARK  203  A    between atoms: _523  and  _524
REMARK  204  A    between atoms: _529  and  _531
REMARK  205  A    between atoms: _531  and  _532
REMARK  206  A    between atoms: _531  and  _534
REMARK  207  A    between atoms: _534  and  _535
REMARK  208  A    between atoms: _538  and  _540
REMARK  209  A    between atoms: _540  and  _541
REMARK  210  A    between atoms: _540  and  _543
REMARK  211  A    between atoms: _543  and  _544
REMARK  212  A    between atoms: _549  and  _551
REMARK  213  A    between atoms: _551  and  _552
REMARK  214  A    between atoms: _551  and  _554
REMARK  215  A    between atoms: _554  and  _555
REMARK  216  A    between atoms: _555  and  _556
REMARK  217  A    between atoms: _556  and  _557
REMARK  218  A    between atoms: _566  and  _568
REMARK  219  A    between atoms: _568  and  _569
REMARK  220  A    between atoms: _571  and  _573
REMARK  221  A    between atoms: _573  and  _574
REMARK  222  A    between atoms: _573  and  _576
REMARK  223  A    between atoms: _576  and  _577
REMARK  224  A    between atoms: _582  and  _584
REMARK  225  A    between atoms: _584  and  _585
REMARK  226  A    between atoms: _587  and  _589
REMARK  227  A    between atoms: _589  and  _590
REMARK  228  A    between atoms: _593  and  _595
REMARK  229  A    between atoms: _595  and  _596
REMARK  230  A    between atoms: _598  and  _600
REMARK  231  A    between atoms: _600  and  _601
REMARK  232  A    between atoms: _600  and  _603
REMARK  233  A    between atoms: _603  and  _604
REMARK  234  A    between atoms: _604  and  _605
REMARK  235  A    between atoms: _605  and  _606
REMARK  236  A    between atoms: _615  and  _617
REMARK  237  A    between atoms: _617  and  _618
REMARK  238  A    between atoms: _617  and  _620
REMARK  239  A    between atoms: _620  and  _621
REMARK  240  A    between atoms: _624  and  _626
REMARK  241  A    between atoms: _626  and  _627
REMARK  242  A    between atoms: _626  and  _629
REMARK  243  A    between atoms: _629  and  _630
REMARK                            x       y       z     vdW  Elec       q    Type
REMARK                         _______ _______ _______ _____ _____    ______ ____
ROOT
ATOM      1  O   HOH     1      -7.726  40.082  16.170  0.00  0.00    +0.000 OA
ENDROOT
TORSDOF 0
REMARK  Name = ../refined-set-2016/1ppi/1ppi_pocket.pdb
REMARK  243 active torsions:
REMARK  status: ('A' for Active; 'I' for Inactive)
REMARK    1  A    between atoms: _1  and  _3
REMARK    2  A    between atoms: _3  and  _4
REMARK    3  A    between atoms: _3  and  _6
REMARK    4  A    between atoms: _6  and  _7
REMARK    5  A    between atoms: _12  and  _14
REMARK    6  A    between atoms: _14  and  _15
REMARK    7  A    between atoms: _14  and  _17
REMARK    8  A    between atoms: _17  and  _18
REMARK    9  A    between atoms: _24  and  _26
REMARK   10  A    between atoms: _26  and  _27
REMARK   11  A    between atoms: _26  and  _29
REMARK   12  A    between atoms: _29  and  _30
REMARK   13  A    between atoms: _30  and  _31
REMARK   14  A    between atoms: _37  and  _38
REMARK   15  A    between atoms: _43  and  _45
REMARK   16  A    between atoms: _45  and  _46
REMARK   17  A    between atoms: _45  and  _48
REMARK   18  A    between atoms: _48  and  _49
REMARK   19  A    between atoms: _54  and  _56
REMARK   20  A    between atoms: _56  and  _57
REMARK   21  A    between atoms: _56  and  _59
REMARK   22  A    between atoms: _62  and  _64
REMARK   23  A    between atoms: _64  and  _65
REMARK   24  A    between atoms: _64  and  _67
REMARK   25  A    between atoms: _71  and  _72
REMARK   26  A    between atoms: _78  and  _79
REMARK   27  A    between atoms: _84  and  _86
REMARK   28  A    between atoms: _86  and  _87
REMARK   29  A    between atoms: _86  and  _89
REMARK   30  A    between atoms: _89  and  _90
REMARK   31  A    between atoms: _100  and  _102
REMARK   32  A    between atoms: _102  and  _103
REMARK   33  A    between atoms: _102  and  _105
REMARK   34  A    between atoms: _105  and  _106
REMARK   35  A    between atoms: _116  and  _118
REMARK   36  A    between atoms: _118  and  _119
REMARK   37  A    between atoms: _118  and  _121
REMARK   38  A    between atoms: _121  and  _122
REMARK   39  A    between atoms: _122  and  _123
REMARK   40  A    between atoms: _126  and  _128
REMARK   41  A    between atoms: _128  and  _129
REMARK   42  A    between atoms: _128  and  _131
REMARK   43  A    between atoms: _131  and  _132
REMARK   44  A    between atoms: _132  and  _133
REMARK   45  A    between atoms: _133  and  _134
REMARK   46  A    between atoms: _143  and  _145
REMARK   47  A    between atoms: _145  and  _146
REMARK   48  A    between atoms: _145  and  _148
REMARK   49  A    between atoms: _148  and  _149
REMARK   50  A    between atoms: _154  and  _155
REMARK   51  A    between atoms: _157  and  _159
REMARK   52  A    between atoms: _159  and  _160
REMARK   53  A    between atoms: _159  and  _162
REMARK   54  A    between atoms: _162  and  _163
REMARK   55  A    between atoms: _163  and  _164
REMARK   56  A    between atoms: _170  and  _171
REMARK   57  A    between atoms: _176  and  _178
REMARK   58  A    between atoms: _178  and  _179
REMARK   59  A    between atoms: _178  and  _181
REMARK   60  A    between atoms: _181  and  _182
REMARK   61  A    between atoms: _185  and  _187
REMARK   62  A    between atoms: _187  and  _188
REMARK   63  A    between atoms: _191  and  _193
REMARK   64  A    between atoms: _193  and  _194
REMARK   65  A    between atoms: _193  and  _196
REMARK   66  A    between atoms: _199  and  _201
REMARK   67  A    between atoms: _201  and  _202
REMARK   68  A    between atoms: _201  and  _204
REMARK   69  A    between atoms: _204  and  _205
REMARK   70  A    between atoms: _208  and  _210
REMARK   71  A    between atoms: _210  and  _211
REMARK   72  A    between atoms: _210  and  _213
REMARK   73  A    between atoms: _213  and  _214
REMARK   74  A    between atoms: _219  and  _221
REMARK   75  A    between atoms: _221  and  _222
REMARK   76  A    between atoms: _221  and  _224
REMARK   77  A    between atoms: _224  and  _225
REMARK   78  A    between atoms: _230  and  _232
REMARK   79  A    between atoms: _232  and  _233
REMARK   80  A    between atoms: _232  and  _235
REMARK   81  A    between atoms: _235  and  _236
REMARK   82  A    between atoms: _236  and  _237
REMARK   83  A    between atoms: _239  and  _241
REMARK   84  A    between atoms: _241  and  _242
REMARK   85  A    between atoms: _241  and  _244
REMARK   86  A    between atoms: _246  and  _248
REMARK   87  A    between atoms: _248  and  _249
REMARK   88  A    between atoms: _251  and  _253
REMARK   89  A    between atoms: _253  and  _254
REMARK   90  A    between atoms: _253  and  _256
REMARK   91  A    between atoms: _256  and  _257
REMARK   92  A    between atoms: _259  and  _261
REMARK   93  A    between atoms: _261  and  _262
REMARK   94  A    between atoms: _264  and  _266
REMARK   95  A    between atoms: _266  and  _267
REMARK   96  A    between atoms: _270  and  _272
REMARK   97  A    between atoms: _272  and  _273
REMARK   98  A    between atoms: _272  and  _275
REMARK   99  A    between atoms: _275  and  _276
REMARK  100  A    between atoms: _279  and  _281
REMARK  101  A    between atoms: _281  and  _282
REMARK  102  A    between atoms: _281  and  _284
REMARK  103  A    between atoms: _284  and  _285
REMARK  104  A    between atoms: _290  and  _291
REMARK  105  A    between atoms: _293  and  _295
REMARK  106  A    between atoms: _295  and  _296
REMARK  107  A    between atoms: _295  and  _298
REMARK  108  A    between atoms: _301  and  _303
REMARK  109  A    between atoms: _303  and  _304
REMARK  110  A    between atoms: _303  and  _306
REMARK  111  A    between atoms: _306  and  _307
REMARK  112  A    between atoms: _307  and  _308
REMARK  113  A    between atoms: _313  and  _315
REMARK  114  A    between atoms: _315  and  _316
REMARK  115  A    between atoms: _315  and  _318
REMARK  116  A    between atoms: _318  and  _319
REMARK  117  A    between atoms: _322  and  _324
REMARK  118  A    between atoms: _324  and  _325
REMARK  119  A    between atoms: _324  and  _327
REMARK  120  A    between atoms: _330  and  _332
REMARK  121  A    between atoms: _332  and  _333
REMARK  122  A    between atoms: _335  and  _337
REMARK  123  A    between atoms: _337  and  _338
REMARK  124  A    between atoms: _337  and  _340
REMARK  125  A    between atoms: _340  and  _341
REMARK  126  A    between atoms: _344  and  _346
REMARK  127  A    between atoms: _346  and  _347
REMARK  128  A    between atoms: _346  and  _349
REMARK  129  A    between atoms: _349  and  _350
REMARK  130  A    between atoms: _353  and  _355
REMARK  131  A    between atoms: _355  and  _356
REMARK  132  A    between atoms: _355  and  _358
REMARK  133  A    between atoms: _358  and  _359
REMARK  134  A    between atoms: _359  and  _360
REMARK  135  A    between atoms: _360  and  _361
REMARK  136  A    between atoms: _370  and  _372
REMARK  137  A    between atoms: _372  and  _373
REMARK  138  A    between atoms: _372  and  _375
REMARK  139  A    between atoms: _375  and  _376
REMARK  140  A    between atoms: _379  and  _381
REMARK  141  A    between atoms: _381  and  _382
REMARK  142  A    between atoms: _381  and  _384
REMARK  143  A    between atoms: _384  and  _385
REMARK  144  A    between atoms: _388  and  _390
REMARK  145  A    between atoms: _390  and  _391
REMARK  146  A    between atoms: _394  and  _396
REMARK  147  A    between atoms: _396  and  _397
REMARK  148  A    between atoms: _396  and  _399
REMARK  149  A    between atoms: _399  and  _400
REMARK  150  A    between atoms: _402  and  _404
REMARK  151  A    between atoms: _404  and  _405
REMARK  152  A    between atoms: _404  and  _407
REMARK  153  A    between atoms: _407  and  _408
REMARK  154  A    between atoms: _408  and  _409
REMARK  155  A    between atoms: _409  and  _410
REMARK  156  A    between atoms: _410  and  _411
REMARK  157  A    between atoms: _415  and  _417
REMARK  158  A    between atoms: _417  and  _418
REMARK  159  A    between atoms: _417  and  _420
REMARK  160  A    between atoms: _420  and  _421
REMARK  161  A    between atoms: _426  and  _428
REMARK  162  A    between atoms: _428  and  _429
REMARK  163  A    between atoms: _428  and  _431
REMARK  164  A    between atoms: _431  and  _432
REMARK  165  A    between atoms: _432  and  _433
REMARK  166  A    between atoms: _436  and  _438
REMARK  167  A    between atoms: _438  and  _439
REMARK  168  A    between atoms: _438  and  _441
REMARK  169  A    between atoms: _444  and  _446
REMARK  170  A    between atoms: _446  and  _447
REMARK  171  A    between atoms: _446  and  _449
REMARK  172  A    between atoms: _449  and  _450
REMARK  173  A    between atoms: _453  and  _455
REMARK  174  A    between atoms: _455  and  _456
REMARK  175  A    between atoms: _455  and  _458
REMARK  176  A    between atoms: _458  and  _459
REMARK  177  A    between atoms: _462  and  _464
REMARK  178  A    between atoms: _464  and  _465
REMARK  179  A    between atoms: _464  and  _467
REMARK  180  A    between atoms: _467  and  _468
REMARK  181  A    between atoms: _471  and  _473
REMARK  182  A    between atoms: _473  and  _474
REMARK  183  A    between atoms: _476  and  _478
REMARK  184  A    between atoms: _478  and  _479
REMARK  185  A    between atoms: _478  and  _481
REMARK  186  A    between atoms: _481  and  _482
REMARK  187  A    between atoms: _482  and  _483
REMARK  188  A    between atoms: _486  and  _488
REMARK  189  A    between atoms: _488  and  _489
REMARK  190  A    between atoms: _488  and  _491
REMARK  191  A    between atoms: _491  and  _492
REMARK  192  A    between atoms: _495  and  _497
REMARK  193  A    between atoms: _497  and  _498
REMARK  194  A    between atoms: _497  and  _500
REMARK  195  A    between atoms: _500  and  _501
REMARK  196  A    between atoms: _507  and  _509
REMARK  197  A    between atoms: _509  and  _510
REMARK  198  A    between atoms: _509  and  _512
REMARK  199  A    between atoms: _512  and  _513
REMARK  200  A    between atoms: _518  and  _520
REMARK  201  A    between atoms: _520  and  _521
REMARK  202  A    between atoms: _520  and  _523
REMARK  203  A    between atoms: _523  and  _524
REMARK  204  A    between atoms: _529  and  _531
REMARK  205  A    between atoms: _531  and  _532
REMARK  206  A    between atoms: _531  and  _534
REMARK  207  A    between atoms: _534  and  _535
REMARK  208  A    between atoms: _538  and  _540
REMARK  209  A    between atoms: _540  and  _541
REMARK  210  A    between atoms: _540  and  _543
REMARK  211  A    between atoms: _543  and  _544
REMARK  212  A    between atoms: _549  and  _551
REMARK  213  A    between atoms: _551  and  _552
REMARK  214  A    between atoms: _551  and  _554
REMARK  215  A    between atoms: _554  and  _555
REMARK  216  A    between atoms: _555  and  _556
REMARK  217  A    between atoms: _556  and  _557
REMARK  218  A    between atoms: _566  and  _568
REMARK  219  A    between atoms: _568  and  _569
REMARK  220  A    between atoms: _571  and  _573
REMARK  221  A    between atoms: _573  and  _574
REMARK  222  A    between atoms: _573  and  _576
REMARK  223  A    between atoms: _576  and  _577
REMARK  224  A    between atoms: _582  and  _584
REMARK  225  A    between atoms: _584  and  _585
REMARK  226  A    between atoms: _587  and  _589
REMARK  227  A    between atoms: _589  and  _590
REMARK  228  A    between atoms: _593  and  _595
REMARK  229  A    between atoms: _595  and  _596
REMARK  230  A    between atoms: _598  and  _600
REMARK  231  A    between atoms: _600  and  _601
REMARK  232  A    between atoms: _600  and  _603
REMARK  233  A    between atoms: _603  and  _604
REMARK  234  A    between atoms: _604  and  _605
REMARK  235  A    between atoms: _605  and  _606
REMARK  236  A    between atoms: _615  and  _617
REMARK  237  A    between atoms: _617  and  _618
REMARK  238  A    between atoms: _617  and  _620
REMARK  239  A    between atoms: _620  and  _621
REMARK  240  A    between atoms: _624  and  _626
REMARK  241  A    between atoms: _626  and  _627
REMARK  242  A    between atoms: _626  and  _629
REMARK  243  A    between atoms: _629  and  _630
REMARK                            x       y       z     vdW  Elec       q    Type
REMARK                         _______ _______ _______ _____ _____    ______ ____
ROOT
ATOM      1  O   HOH     1      -7.945  35.496  13.598  0.00  0.00    +0.000 OA
ENDROOT
TORSDOF 0
REMARK  Name = ../refined-set-2016/1ppi/1ppi_pocket.pdb
REMARK  243 active torsions:
REMARK  status: ('A' for Active; 'I' for Inactive)
REMARK    1  A    between atoms: _1  and  _3
REMARK    2  A    between atoms: _3  and  _4
REMARK    3  A    between atoms: _3  and  _6
REMARK    4  A    between atoms: _6  and  _7
REMARK    5  A    between atoms: _12  and  _14
REMARK    6  A    between atoms: _14  and  _15
REMARK    7  A    between atoms: _14  and  _17
REMARK    8  A    between atoms: _17  and  _18
REMARK    9  A    between atoms: _24  and  _26
REMARK   10  A    between atoms: _26  and  _27
REMARK   11  A    between atoms: _26  and  _29
REMARK   12  A    between atoms: _29  and  _30
REMARK   13  A    between atoms: _30  and  _31
REMARK   14  A    between atoms: _37  and  _38
REMARK   15  A    between atoms: _43  and  _45
REMARK   16  A    between atoms: _45  and  _46
REMARK   17  A    between atoms: _45  and  _48
REMARK   18  A    between atoms: _48  and  _49
REMARK   19  A    between atoms: _54  and  _56
REMARK   20  A    between atoms: _56  and  _57
REMARK   21  A    between atoms: _56  and  _59
REMARK   22  A    between atoms: _62  and  _64
REMARK   23  A    between atoms: _64  and  _65
REMARK   24  A    between atoms: _64  and  _67
REMARK   25  A    between atoms: _71  and  _72
REMARK   26  A    between atoms: _78  and  _79
REMARK   27  A    between atoms: _84  and  _86
REMARK   28  A    between atoms: _86  and  _87
REMARK   29  A    between atoms: _86  and  _89
REMARK   30  A    between atoms: _89  and  _90
REMARK   31  A    between atoms: _100  and  _102
REMARK   32  A    between atoms: _102  and  _103
REMARK   33  A    between atoms: _102  and  _105
REMARK   34  A    between atoms: _105  and  _106
REMARK   35  A    between atoms: _116  and  _118
REMARK   36  A    between atoms: _118  and  _119
REMARK   37  A    between atoms: _118  and  _121
REMARK   38  A    between atoms: _121  and  _122
REMARK   39  A    between atoms: _122  and  _123
REMARK   40  A    between atoms: _126  and  _128
REMARK   41  A    between atoms: _128  and  _129
REMARK   42  A    between atoms: _128  and  _131
REMARK   43  A    between atoms: _131  and  _132
REMARK   44  A    between atoms: _132  and  _133
REMARK   45  A    between atoms: _133  and  _134
REMARK   46  A    between atoms: _143  and  _145
REMARK   47  A    between atoms: _145  and  _146
REMARK   48  A    between atoms: _145  and  _148
REMARK   49  A    between atoms: _148  and  _149
REMARK   50  A    between atoms: _154  and  _155
REMARK   51  A    between atoms: _157  and  _159
REMARK   52  A    between atoms: _159  and  _160
REMARK   53  A    between atoms: _159  and  _162
REMARK   54  A    between atoms: _162  and  _163
REMARK   55  A    between atoms: _163  and  _164
REMARK   56  A    between atoms: _170  and  _171
REMARK   57  A    between atoms: _176  and  _178
REMARK   58  A    between atoms: _178  and  _179
REMARK   59  A    between atoms: _178  and  _181
REMARK   60  A    between atoms: _181  and  _182
REMARK   61  A    between atoms: _185  and  _187
REMARK   62  A    between atoms: _187  and  _188
REMARK   63  A    between atoms: _191  and  _193
REMARK   64  A    between atoms: _193  and  _194
REMARK   65  A    between atoms: _193  and  _196
REMARK   66  A    between atoms: _199  and  _201
REMARK   67  A    between atoms: _201  and  _202
REMARK   68  A    between atoms: _201  and  _204
REMARK   69  A    between atoms: _204  and  _205
REMARK   70  A    between atoms: _208  and  _210
REMARK   71  A    between atoms: _210  and  _211
REMARK   72  A    between atoms: _210  and  _213
REMARK   73  A    between atoms: _213  and  _214
REMARK   74  A    between atoms: _219  and  _221
REMARK   75  A    between atoms: _221  and  _222
REMARK   76  A    between atoms: _221  and  _224
REMARK   77  A    between atoms: _224  and  _225
REMARK   78  A    between atoms: _230  and  _232
REMARK   79  A    between atoms: _232  and  _233
REMARK   80  A    between atoms: _232  and  _235
REMARK   81  A    between atoms: _235  and  _236
REMARK   82  A    between atoms: _236  and  _237
REMARK   83  A    between atoms: _239  and  _241
REMARK   84  A    between atoms: _241  and  _242
REMARK   85  A    between atoms: _241  and  _244
REMARK   86  A    between atoms: _246  and  _248
REMARK   87  A    between atoms: _248  and  _249
REMARK   88  A    between atoms: _251  and  _253
REMARK   89  A    between atoms: _253  and  _254
REMARK   90  A    between atoms: _253  and  _256
REMARK   91  A    between atoms: _256  and  _257
REMARK   92  A    between atoms: _259  and  _261
REMARK   93  A    between atoms: _261  and  _262
REMARK   94  A    between atoms: _264  and  _266
REMARK   95  A    between atoms: _266  and  _267
REMARK   96  A    between atoms: _270  and  _272
REMARK   97  A    between atoms: _272  and  _273
REMARK   98  A    between atoms: _272  and  _275
REMARK   99  A    between atoms: _275  and  _276
REMARK  100  A    between atoms: _279  and  _281
REMARK  101  A    between atoms: _281  and  _282
REMARK  102  A    between atoms: _281  and  _284
REMARK  103  A    between atoms: _284  and  _285
REMARK  104  A    between atoms: _290  and  _291
REMARK  105  A    between atoms: _293  and  _295
REMARK  106  A    between atoms: _295  and  _296
REMARK  107  A    between atoms: _295  and  _298
REMARK  108  A    between atoms: _301  and  _303
REMARK  109  A    between atoms: _303  and  _304
REMARK  110  A    between atoms: _303  and  _306
REMARK  111  A    between atoms: _306  and  _307
REMARK  112  A    between atoms: _307  and  _308
REMARK  113  A    between atoms: _313  and  _315
REMARK  114  A    between atoms: _315  and  _316
REMARK  115  A    between atoms: _315  and  _318
REMARK  116  A    between atoms: _318  and  _319
REMARK  117  A    between atoms: _322  and  _324
REMARK  118  A    between atoms: _324  and  _325
REMARK  119  A    between atoms: _324  and  _327
REMARK  120  A    between atoms: _330  and  _332
REMARK  121  A    between atoms: _332  and  _333
REMARK  122  A    between atoms: _335  and  _337
REMARK  123  A    between atoms: _337  and  _338
REMARK  124  A    between atoms: _337  and  _340
REMARK  125  A    between atoms: _340  and  _341
REMARK  126  A    between atoms: _344  and  _346
REMARK  127  A    between atoms: _346  and  _347
REMARK  128  A    between atoms: _346  and  _349
REMARK  129  A    between atoms: _349  and  _350
REMARK  130  A    between atoms: _353  and  _355
REMARK  131  A    between atoms: _355  and  _356
REMARK  132  A    between atoms: _355  and  _358
REMARK  133  A    between atoms: _358  and  _359
REMARK  134  A    between atoms: _359  and  _360
REMARK  135  A    between atoms: _360  and  _361
REMARK  136  A    between atoms: _370  and  _372
REMARK  137  A    between atoms: _372  and  _373
REMARK  138  A    between atoms: _372  and  _375
REMARK  139  A    between atoms: _375  and  _376
REMARK  140  A    between atoms: _379  and  _381
REMARK  141  A    between atoms: _381  and  _382
REMARK  142  A    between atoms: _381  and  _384
REMARK  143  A    between atoms: _384  and  _385
REMARK  144  A    between atoms: _388  and  _390
REMARK  145  A    between atoms: _390  and  _391
REMARK  146  A    between atoms: _394  and  _396
REMARK  147  A    between atoms: _396  and  _397
REMARK  148  A    between atoms: _396  and  _399
REMARK  149  A    between atoms: _399  and  _400
REMARK  150  A    between atoms: _402  and  _404
REMARK  151  A    between atoms: _404  and  _405
REMARK  152  A    between atoms: _404  and  _407
REMARK  153  A    between atoms: _407  and  _408
REMARK  154  A    between atoms: _408  and  _409
REMARK  155  A    between atoms: _409  and  _410
REMARK  156  A    between atoms: _410  and  _411
REMARK  157  A    between atoms: _415  and  _417
REMARK  158  A    between atoms: _417  and  _418
REMARK  159  A    between atoms: _417  and  _420
REMARK  160  A    between atoms: _420  and  _421
REMARK  161  A    between atoms: _426  and  _428
REMARK  162  A    between atoms: _428  and  _429
REMARK  163  A    between atoms: _428  and  _431
REMARK  164  A    between atoms: _431  and  _432
REMARK  165  A    between atoms: _432  and  _433
REMARK  166  A    between atoms: _436  and  _438
REMARK  167  A    between atoms: _438  and  _439
REMARK  168  A    between atoms: _438  and  _441
REMARK  169  A    between atoms: _444  and  _446
REMARK  170  A    between atoms: _446  and  _447
REMARK  171  A    between atoms: _446  and  _449
REMARK  172  A    between atoms: _449  and  _450
REMARK  173  A    between atoms: _453  and  _455
REMARK  174  A    between atoms: _455  and  _456
REMARK  175  A    between atoms: _455  and  _458
REMARK  176  A    between atoms: _458  and  _459
REMARK  177  A    between atoms: _462  and  _464
REMARK  178  A    between atoms: _464  and  _465
REMARK  179  A    between atoms: _464  and  _467
REMARK  180  A    between atoms: _467  and  _468
REMARK  181  A    between atoms: _471  and  _473
REMARK  182  A    between atoms: _473  and  _474
REMARK  183  A    between atoms: _476  and  _478
REMARK  184  A    between atoms: _478  and  _479
REMARK  185  A    between atoms: _478  and  _481
REMARK  186  A    between atoms: _481  and  _482
REMARK  187  A    between atoms: _482  and  _483
REMARK  188  A    between atoms: _486  and  _488
REMARK  189  A    between atoms: _488  and  _489
REMARK  190  A    between atoms: _488  and  _491
REMARK  191  A    between atoms: _491  and  _492
REMARK  192  A    between atoms: _495  and  _497
REMARK  193  A    between atoms: _497  and  _498
REMARK  194  A    between atoms: _497  and  _500
REMARK  195  A    between atoms: _500  and  _501
REMARK  196  A    between atoms: _507  and  _509
REMARK  197  A    between atoms: _509  and  _510
REMARK  198  A    between atoms: _509  and  _512
REMARK  199  A    between atoms: _512  and  _513
REMARK  200  A    between atoms: _518  and  _520
REMARK  201  A    between atoms: _520  and  _521
REMARK  202  A    between atoms: _520  and  _523
REMARK  203  A    between atoms: _523  and  _524
REMARK  204  A    between atoms: _529  and  _531
REMARK  205  A    between atoms: _531  and  _532
REMARK  206  A    between atoms: _531  and  _534
REMARK  207  A    between atoms: _534  and  _535
REMARK  208  A    between atoms: _538  and  _540
REMARK  209  A    between atoms: _540  and  _541
REMARK  210  A    between atoms: _540  and  _543
REMARK  211  A    between atoms: _543  and  _544
REMARK  212  A    between atoms: _549  and  _551
REMARK  213  A    between atoms: _551  and  _552
REMARK  214  A    between atoms: _551  and  _554
REMARK  215  A    between atoms: _554  and  _555
REMARK  216  A    between atoms: _555  and  _556
REMARK  217  A    between atoms: _556  and  _557
REMARK  218  A    between atoms: _566  and  _568
REMARK  219  A    between atoms: _568  and  _569
REMARK  220  A    between atoms: _571  and  _573
REMARK  221  A    between atoms: _573  and  _574
REMARK  222  A    between atoms: _573  and  _576
REMARK  223  A    between atoms: _576  and  _577
REMARK  224  A    between atoms: _582  and  _584
REMARK  225  A    between atoms: _584  and  _585
REMARK  226  A    between atoms: _587  and  _589
REMARK  227  A    between atoms: _589  and  _590
REMARK  228  A    between atoms: _593  and  _595
REMARK  229  A    between atoms: _595  and  _596
REMARK  230  A    between atoms: _598  and  _600
REMARK  231  A    between atoms: _600  and  _601
REMARK  232  A    between atoms: _600  and  _603
REMARK  233  A    between atoms: _603  and  _604
REMARK  234  A    between atoms: _604  and  _605
REMARK  235  A    between atoms: _605  and  _606
REMARK  236  A    between atoms: _615  and  _617
REMARK  237  A    between atoms: _617  and  _618
REMARK  238  A    between atoms: _617  and  _620
REMARK  239  A    between atoms: _620  and  _621
REMARK  240  A    between atoms: _624  and  _626
REMARK  241  A    between atoms: _626  and  _627
REMARK  242  A    between atoms: _626  and  _629
REMARK  243  A    between atoms: _629  and  _630
REMARK                            x       y       z     vdW  Elec       q    Type
REMARK                         _______ _______ _______ _____ _____    ______ ____
ROOT
ATOM      1  O   HOH     1      -2.577  38.062  11.093  0.00  0.00    +0.000 OA
ENDROOT
TORSDOF 0
REMARK  Name = ../refined-set-2016/1ppi/1ppi_pocket.pdb
REMARK  243 active torsions:
REMARK  status: ('A' for Active; 'I' for Inactive)
REMARK    1  A    between atoms: _1  and  _3
REMARK    2  A    between atoms: _3  and  _4
REMARK    3  A    between atoms: _3  and  _6
REMARK    4  A    between atoms: _6  and  _7
REMARK    5  A    between atoms: _12  and  _14
REMARK    6  A    between atoms: _14  and  _15
REMARK    7  A    between atoms: _14  and  _17
REMARK    8  A    between atoms: _17  and  _18
REMARK    9  A    between atoms: _24  and  _26
REMARK   10  A    between atoms: _26  and  _27
REMARK   11  A    between atoms: _26  and  _29
REMARK   12  A    between atoms: _29  and  _30
REMARK   13  A    between atoms: _30  and  _31
REMARK   14  A    between atoms: _37  and  _38
REMARK   15  A    between atoms: _43  and  _45
REMARK   16  A    between atoms: _45  and  _46
REMARK   17  A    between atoms: _45  and  _48
REMARK   18  A    between atoms: _48  and  _49
REMARK   19  A    between atoms: _54  and  _56
REMARK   20  A    between atoms: _56  and  _57
REMARK   21  A    between atoms: _56  and  _59
REMARK   22  A    between atoms: _62  and  _64
REMARK   23  A    between atoms: _64  and  _65
REMARK   24  A    between atoms: _64  and  _67
REMARK   25  A    between atoms: _71  and  _72
REMARK   26  A    between atoms: _78  and  _79
REMARK   27  A    between atoms: _84  and  _86
REMARK   28  A    between atoms: _86  and  _87
REMARK   29  A    between atoms: _86  and  _89
REMARK   30  A    between atoms: _89  and  _90
REMARK   31  A    between atoms: _100  and  _102
REMARK   32  A    between atoms: _102  and  _103
REMARK   33  A    between atoms: _102  and  _105
REMARK   34  A    between atoms: _105  and  _106
REMARK   35  A    between atoms: _116  and  _118
REMARK   36  A    between atoms: _118  and  _119
REMARK   37  A    between atoms: _118  and  _121
REMARK   38  A    between atoms: _121  and  _122
REMARK   39  A    between atoms: _122  and  _123
REMARK   40  A    between atoms: _126  and  _128
REMARK   41  A    between atoms: _128  and  _129
REMARK   42  A    between atoms: _128  and  _131
REMARK   43  A    between atoms: _131  and  _132
REMARK   44  A    between atoms: _132  and  _133
REMARK   45  A    between atoms: _133  and  _134
REMARK   46  A    between atoms: _143  and  _145
REMARK   47  A    between atoms: _145  and  _146
REMARK   48  A    between atoms: _145  and  _148
REMARK   49  A    between atoms: _148  and  _149
REMARK   50  A    between atoms: _154  and  _155
REMARK   51  A    between atoms: _157  and  _159
REMARK   52  A    between atoms: _159  and  _160
REMARK   53  A    between atoms: _159  and  _162
REMARK   54  A    between atoms: _162  and  _163
REMARK   55  A    between atoms: _163  and  _164
REMARK   56  A    between atoms: _170  and  _171
REMARK   57  A    between atoms: _176  and  _178
REMARK   58  A    between atoms: _178  and  _179
REMARK   59  A    between atoms: _178  and  _181
REMARK   60  A    between atoms: _181  and  _182
REMARK   61  A    between atoms: _185  and  _187
REMARK   62  A    between atoms: _187  and  _188
REMARK   63  A    between atoms: _191  and  _193
REMARK   64  A    between atoms: _193  and  _194
REMARK   65  A    between atoms: _193  and  _196
REMARK   66  A    between atoms: _199  and  _201
REMARK   67  A    between atoms: _201  and  _202
REMARK   68  A    between atoms: _201  and  _204
REMARK   69  A    between atoms: _204  and  _205
REMARK   70  A    between atoms: _208  and  _210
REMARK   71  A    between atoms: _210  and  _211
REMARK   72  A    between atoms: _210  and  _213
REMARK   73  A    between atoms: _213  and  _214
REMARK   74  A    between atoms: _219  and  _221
REMARK   75  A    between atoms: _221  and  _222
REMARK   76  A    between atoms: _221  and  _224
REMARK   77  A    between atoms: _224  and  _225
REMARK   78  A    between atoms: _230  and  _232
REMARK   79  A    between atoms: _232  and  _233
REMARK   80  A    between atoms: _232  and  _235
REMARK   81  A    between atoms: _235  and  _236
REMARK   82  A    between atoms: _236  and  _237
REMARK   83  A    between atoms: _239  and  _241
REMARK   84  A    between atoms: _241  and  _242
REMARK   85  A    between atoms: _241  and  _244
REMARK   86  A    between atoms: _246  and  _248
REMARK   87  A    between atoms: _248  and  _249
REMARK   88  A    between atoms: _251  and  _253
REMARK   89  A    between atoms: _253  and  _254
REMARK   90  A    between atoms: _253  and  _256
REMARK   91  A    between atoms: _256  and  _257
REMARK   92  A    between atoms: _259  and  _261
REMARK   93  A    between atoms: _261  and  _262
REMARK   94  A    between atoms: _264  and  _266
REMARK   95  A    between atoms: _266  and  _267
REMARK   96  A    between atoms: _270  and  _272
REMARK   97  A    between atoms: _272  and  _273
REMARK   98  A    between atoms: _272  and  _275
REMARK   99  A    between atoms: _275  and  _276
REMARK  100  A    between atoms: _279  and  _281
REMARK  101  A    between atoms: _281  and  _282
REMARK  102  A    between atoms: _281  and  _284
REMARK  103  A    between atoms: _284  and  _285
REMARK  104  A    between atoms: _290  and  _291
REMARK  105  A    between atoms: _293  and  _295
REMARK  106  A    between atoms: _295  and  _296
REMARK  107  A    between atoms: _295  and  _298
REMARK  108  A    between atoms: _301  and  _303
REMARK  109  A    between atoms: _303  and  _304
REMARK  110  A    between atoms: _303  and  _306
REMARK  111  A    between atoms: _306  and  _307
REMARK  112  A    between atoms: _307  and  _308
REMARK  113  A    between atoms: _313  and  _315
REMARK  114  A    between atoms: _315  and  _316
REMARK  115  A    between atoms: _315  and  _318
REMARK  116  A    between atoms: _318  and  _319
REMARK  117  A    between atoms: _322  and  _324
REMARK  118  A    between atoms: _324  and  _325
REMARK  119  A    between atoms: _324  and  _327
REMARK  120  A    between atoms: _330  and  _332
REMARK  121  A    between atoms: _332  and  _333
REMARK  122  A    between atoms: _335  and  _337
REMARK  123  A    between atoms: _337  and  _338
REMARK  124  A    between atoms: _337  and  _340
REMARK  125  A    between atoms: _340  and  _341
REMARK  126  A    between atoms: _344  and  _346
REMARK  127  A    between atoms: _346  and  _347
REMARK  128  A    between atoms: _346  and  _349
REMARK  129  A    between atoms: _349  and  _350
REMARK  130  A    between atoms: _353  and  _355
REMARK  131  A    between atoms: _355  and  _356
REMARK  132  A    between atoms: _355  and  _358
REMARK  133  A    between atoms: _358  and  _359
REMARK  134  A    between atoms: _359  and  _360
REMARK  135  A    between atoms: _360  and  _361
REMARK  136  A    between atoms: _370  and  _372
REMARK  137  A    between atoms: _372  and  _373
REMARK  138  A    between atoms: _372  and  _375
REMARK  139  A    between atoms: _375  and  _376
REMARK  140  A    between atoms: _379  and  _381
REMARK  141  A    between atoms: _381  and  _382
REMARK  142  A    between atoms: _381  and  _384
REMARK  143  A    between atoms: _384  and  _385
REMARK  144  A    between atoms: _388  and  _390
REMARK  145  A    between atoms: _390  and  _391
REMARK  146  A    between atoms: _394  and  _396
REMARK  147  A    between atoms: _396  and  _397
REMARK  148  A    between atoms: _396  and  _399
REMARK  149  A    between atoms: _399  and  _400
REMARK  150  A    between atoms: _402  and  _404
REMARK  151  A    between atoms: _404  and  _405
REMARK  152  A    between atoms: _404  and  _407
REMARK  153  A    between atoms: _407  and  _408
REMARK  154  A    between atoms: _408  and  _409
REMARK  155  A    between atoms: _409  and  _410
REMARK  156  A    between atoms: _410  and  _411
REMARK  157  A    between atoms: _415  and  _417
REMARK  158  A    between atoms: _417  and  _418
REMARK  159  A    between atoms: _417  and  _420
REMARK  160  A    between atoms: _420  and  _421
REMARK  161  A    between atoms: _426  and  _428
REMARK  162  A    between atoms: _428  and  _429
REMARK  163  A    between atoms: _428  and  _431
REMARK  164  A    between atoms: _431  and  _432
REMARK  165  A    between atoms: _432  and  _433
REMARK  166  A    between atoms: _436  and  _438
REMARK  167  A    between atoms: _438  and  _439
REMARK  168  A    between atoms: _438  and  _441
REMARK  169  A    between atoms: _444  and  _446
REMARK  170  A    between atoms: _446  and  _447
REMARK  171  A    between atoms: _446  and  _449
REMARK  172  A    between atoms: _449  and  _450
REMARK  173  A    between atoms: _453  and  _455
REMARK  174  A    between atoms: _455  and  _456
REMARK  175  A    between atoms: _455  and  _458
REMARK  176  A    between atoms: _458  and  _459
REMARK  177  A    between atoms: _462  and  _464
REMARK  178  A    between atoms: _464  and  _465
REMARK  179  A    between atoms: _464  and  _467
REMARK  180  A    between atoms: _467  and  _468
REMARK  181  A    between atoms: _471  and  _473
REMARK  182  A    between atoms: _473  and  _474
REMARK  183  A    between atoms: _476  and  _478
REMARK  184  A    between atoms: _478  and  _479
REMARK  185  A    between atoms: _478  and  _481
REMARK  186  A    between atoms: _481  and  _482
REMARK  187  A    between atoms: _482  and  _483
REMARK  188  A    between atoms: _486  and  _488
REMARK  189  A    between atoms: _488  and  _489
REMARK  190  A    between atoms: _488  and  _491
REMARK  191  A    between atoms: _491  and  _492
REMARK  192  A    between atoms: _495  and  _497
REMARK  193  A    between atoms: _497  and  _498
REMARK  194  A    between atoms: _497  and  _500
REMARK  195  A    between atoms: _500  and  _501
REMARK  196  A    between atoms: _507  and  _509
REMARK  197  A    between atoms: _509  and  _510
REMARK  198  A    between atoms: _509  and  _512
REMARK  199  A    between atoms: _512  and  _513
REMARK  200  A    between atoms: _518  and  _520
REMARK  201  A    between atoms: _520  and  _521
REMARK  202  A    between atoms: _520  and  _523
REMARK  203  A    between atoms: _523  and  _524
REMARK  204  A    between atoms: _529  and  _531
REMARK  205  A    between atoms: _531  and  _532
REMARK  206  A    between atoms: _531  and  _534
REMARK  207  A    between atoms: _534  and  _535
REMARK  208  A    between atoms: _538  and  _540
REMARK  209  A    between atoms: _540  and  _541
REMARK  210  A    between atoms: _540  and  _543
REMARK  211  A    between atoms: _543  and  _544
REMARK  212  A    between atoms: _549  and  _551
REMARK  213  A    between atoms: _551  and  _552
REMARK  214  A    between atoms: _551  and  _554
REMARK  215  A    between atoms: _554  and  _555
REMARK  216  A    between atoms: _555  and  _556
REMARK  217  A    between atoms: _556  and  _557
REMARK  218  A    between atoms: _566  and  _568
REMARK  219  A    between atoms: _568  and  _569
REMARK  220  A    between atoms: _571  and  _573
REMARK  221  A    between atoms: _573  and  _574
REMARK  222  A    between atoms: _573  and  _576
REMARK  223  A    between atoms: _576  and  _577
REMARK  224  A    between atoms: _582  and  _584
REMARK  225  A    between atoms: _584  and  _585
REMARK  226  A    between atoms: _587  and  _589
REMARK  227  A    between atoms: _589  and  _590
REMARK  228  A    between atoms: _593  and  _595
REMARK  229  A    between atoms: _595  and  _596
REMARK  230  A    between atoms: _598  and  _600
REMARK  231  A    between atoms: _600  and  _601
REMARK  232  A    between atoms: _600  and  _603
REMARK  233  A    between atoms: _603  and  _604
REMARK  234  A    between atoms: _604  and  _605
REMARK  235  A    between atoms: _605  and  _606
REMARK  236  A    between atoms: _615  and  _617
REMARK  237  A    between atoms: _617  and  _618
REMARK  238  A    between atoms: _617  and  _620
REMARK  239  A    between atoms: _620  and  _621
REMARK  240  A    between atoms: _624  and  _626
REMARK  241  A    between atoms: _626  and  _627
REMARK  242  A    between atoms: _626  and  _629
REMARK  243  A    between atoms: _629  and  _630
REMARK                            x       y       z     vdW  Elec       q    Type
REMARK                         _______ _______ _______ _____ _____    ______ ____
ROOT
ATOM      1  O   HOH     1      -8.209  42.767  11.279  0.00  0.00    +0.000 OA
ENDROOT
TORSDOF 0
