REMARK  Name = ../refined-set-2016/2vkm/2vkm_pocket.pdb
REMARK  298 active torsions:
REMARK  status: ('A' for Active; 'I' for Inactive)
REMARK    1  A    between atoms: _1  and  _3
REMARK    2  A    between atoms: _3  and  _4
REMARK    3  A    between atoms: _6  and  _8
REMARK    4  A    between atoms: _8  and  _9
REMARK    5  A    between atoms: _8  and  _11
REMARK    6  A    between atoms: _11  and  _12
REMARK    7  A    between atoms: _12  and  _13
REMARK    8  A    between atoms: _13  and  _14
REMARK    9  A    between atoms: _14  and  _15
REMARK   10  A    between atoms: _19  and  _21
REMARK   11  A    between atoms: _21  and  _22
REMARK   12  A    between atoms: _21  and  _24
REMARK   13  A    between atoms: _24  and  _25
REMARK   14  A    between atoms: _27  and  _29
REMARK   15  A    between atoms: _29  and  _30
REMARK   16  A    between atoms: _32  and  _34
REMARK   17  A    between atoms: _34  and  _35
REMARK   18  A    between atoms: _34  and  _37
REMARK   19  A    between atoms: _37  and  _38
REMARK   20  A    between atoms: _38  and  _39
REMARK   21  A    between atoms: _44  and  _46
REMARK   22  A    between atoms: _46  and  _47
REMARK   23  A    between atoms: _49  and  _51
REMARK   24  A    between atoms: _51  and  _52
REMARK   25  A    between atoms: _51  and  _54
REMARK   26  A    between atoms: _54  and  _55
REMARK   27  A    between atoms: _60  and  _61
REMARK   28  A    between atoms: _63  and  _65
REMARK   29  A    between atoms: _65  and  _66
REMARK   30  A    between atoms: _65  and  _68
REMARK   31  A    between atoms: _68  and  _69
REMARK   32  A    between atoms: _74  and  _75
REMARK   33  A    between atoms: _77  and  _79
REMARK   34  A    between atoms: _79  and  _80
REMARK   35  A    between atoms: _79  and  _82
REMARK   36  A    between atoms: _82  and  _83
REMARK   37  A    between atoms: _86  and  _88
REMARK   38  A    between atoms: _88  and  _89
REMARK   39  A    between atoms: _88  and  _91
REMARK   40  A    between atoms: _94  and  _96
REMARK   41  A    between atoms: _96  and  _97
REMARK   42  A    between atoms: _96  and  _99
REMARK   43  A    between atoms: _99  and  _100
REMARK   44  A    between atoms: _103  and  _105
REMARK   45  A    between atoms: _105  and  _106
REMARK   46  A    between atoms: _105  and  _108
REMARK   47  A    between atoms: _108  and  _109
REMARK   48  A    between atoms: _112  and  _114
REMARK   49  A    between atoms: _114  and  _115
REMARK   50  A    between atoms: _117  and  _119
REMARK   51  A    between atoms: _119  and  _120
REMARK   52  A    between atoms: _119  and  _122
REMARK   53  A    between atoms: _122  and  _123
REMARK   54  A    between atoms: _125  and  _127
REMARK   55  A    between atoms: _127  and  _128
REMARK   56  A    between atoms: _127  and  _130
REMARK   57  A    between atoms: _130  and  _131
REMARK   58  A    between atoms: _133  and  _135
REMARK   59  A    between atoms: _135  and  _136
REMARK   60  A    between atoms: _135  and  _138
REMARK   61  A    between atoms: _138  and  _139
REMARK   62  A    between atoms: _144  and  _146
REMARK   63  A    between atoms: _146  and  _147
REMARK   64  A    between atoms: _146  and  _149
REMARK   65  A    between atoms: _153  and  _154
REMARK   66  A    between atoms: _159  and  _161
REMARK   67  A    between atoms: _161  and  _162
REMARK   68  A    between atoms: _161  and  _164
REMARK   69  A    between atoms: _164  and  _165
REMARK   70  A    between atoms: _170  and  _171
REMARK   71  A    between atoms: _173  and  _175
REMARK   72  A    between atoms: _175  and  _176
REMARK   73  A    between atoms: _175  and  _178
REMARK   74  A    between atoms: _178  and  _179
REMARK   75  A    between atoms: _182  and  _184
REMARK   76  A    between atoms: _184  and  _185
REMARK   77  A    between atoms: _184  and  _187
REMARK   78  A    between atoms: _187  and  _188
REMARK   79  A    between atoms: _188  and  _189
REMARK   80  A    between atoms: _194  and  _196
REMARK   81  A    between atoms: _196  and  _197
REMARK   82  A    between atoms: _199  and  _201
REMARK   83  A    between atoms: _201  and  _202
REMARK   84  A    between atoms: _201  and  _204
REMARK   85  A    between atoms: _204  and  _205
REMARK   86  A    between atoms: _205  and  _206
REMARK   87  A    between atoms: _206  and  _207
REMARK   88  A    between atoms: _207  and  _208
REMARK   89  A    between atoms: _212  and  _214
REMARK   90  A    between atoms: _214  and  _215
REMARK   91  A    between atoms: _214  and  _217
REMARK   92  A    between atoms: _217  and  _218
REMARK   93  A    between atoms: _228  and  _230
REMARK   94  A    between atoms: _230  and  _231
REMARK   95  A    between atoms: _230  and  _233
REMARK   96  A    between atoms: _233  and  _234
REMARK   97  A    between atoms: _237  and  _239
REMARK   98  A    between atoms: _239  and  _240
REMARK   99  A    between atoms: _239  and  _242
REMARK  100  A    between atoms: _242  and  _243
REMARK  101  A    between atoms: _243  and  _244
REMARK  102  A    between atoms: _244  and  _245
REMARK  103  A    between atoms: _245  and  _246
REMARK  104  A    between atoms: _250  and  _252
REMARK  105  A    between atoms: _252  and  _253
REMARK  106  A    between atoms: _252  and  _255
REMARK  107  A    between atoms: _255  and  _256
REMARK  108  A    between atoms: _262  and  _264
REMARK  109  A    between atoms: _264  and  _265
REMARK  110  A    between atoms: _264  and  _267
REMARK  111  A    between atoms: _267  and  _268
REMARK  112  A    between atoms: _274  and  _276
REMARK  113  A    between atoms: _276  and  _277
REMARK  114  A    between atoms: _276  and  _279
REMARK  115  A    between atoms: _279  and  _280
REMARK  116  A    between atoms: _283  and  _285
REMARK  117  A    between atoms: _285  and  _286
REMARK  118  A    between atoms: _285  and  _288
REMARK  119  A    between atoms: _288  and  _289
REMARK  120  A    between atoms: _291  and  _293
REMARK  121  A    between atoms: _293  and  _294
REMARK  122  A    between atoms: _293  and  _296
REMARK  123  A    between atoms: _296  and  _297
REMARK  124  A    between atoms: _307  and  _309
REMARK  125  A    between atoms: _309  and  _310
REMARK  126  A    between atoms: _312  and  _314
REMARK  127  A    between atoms: _314  and  _315
REMARK  128  A    between atoms: _314  and  _317
REMARK  129  A    between atoms: _317  and  _318
REMARK  130  A    between atoms: _321  and  _323
REMARK  131  A    between atoms: _323  and  _324
REMARK  132  A    between atoms: _323  and  _326
REMARK  133  A    between atoms: _326  and  _327
REMARK  134  A    between atoms: _330  and  _332
REMARK  135  A    between atoms: _332  and  _333
REMARK  136  A    between atoms: _335  and  _337
REMARK  137  A    between atoms: _337  and  _338
REMARK  138  A    between atoms: _337  and  _340
REMARK  139  A    between atoms: _340  and  _341
REMARK  140  A    between atoms: _344  and  _346
REMARK  141  A    between atoms: _346  and  _347
REMARK  142  A    between atoms: _350  and  _352
REMARK  143  A    between atoms: _352  and  _353
REMARK  144  A    between atoms: _352  and  _355
REMARK  145  A    between atoms: _355  and  _356
REMARK  146  A    between atoms: _361  and  _362
REMARK  147  A    between atoms: _364  and  _366
REMARK  148  A    between atoms: _366  and  _367
REMARK  149  A    between atoms: _370  and  _372
REMARK  150  A    between atoms: _372  and  _373
REMARK  151  A    between atoms: _372  and  _375
REMARK  152  A    between atoms: _375  and  _376
REMARK  153  A    between atoms: _376  and  _377
REMARK  154  A    between atoms: _380  and  _382
REMARK  155  A    between atoms: _382  and  _383
REMARK  156  A    between atoms: _382  and  _385
REMARK  157  A    between atoms: _385  and  _386
REMARK  158  A    between atoms: _389  and  _391
REMARK  159  A    between atoms: _391  and  _392
REMARK  160  A    between atoms: _395  and  _397
REMARK  161  A    between atoms: _397  and  _398
REMARK  162  A    between atoms: _397  and  _400
REMARK  163  A    between atoms: _400  and  _401
REMARK  164  A    between atoms: _401  and  _402
REMARK  165  A    between atoms: _402  and  _403
REMARK  166  A    between atoms: _412  and  _414
REMARK  167  A    between atoms: _414  and  _415
REMARK  168  A    between atoms: _414  and  _417
REMARK  169  A    between atoms: _417  and  _418
REMARK  170  A    between atoms: _421  and  _423
REMARK  171  A    between atoms: _423  and  _424
REMARK  172  A    between atoms: _426  and  _428
REMARK  173  A    between atoms: _428  and  _429
REMARK  174  A    between atoms: _428  and  _431
REMARK  175  A    between atoms: _431  and  _432
REMARK  176  A    between atoms: _442  and  _444
REMARK  177  A    between atoms: _444  and  _445
REMARK  178  A    between atoms: _444  and  _447
REMARK  179  A    between atoms: _447  and  _448
REMARK  180  A    between atoms: _453  and  _454
REMARK  181  A    between atoms: _456  and  _458
REMARK  182  A    between atoms: _458  and  _459
REMARK  183  A    between atoms: _458  and  _461
REMARK  184  A    between atoms: _461  and  _462
REMARK  185  A    between atoms: _467  and  _468
REMARK  186  A    between atoms: _470  and  _472
REMARK  187  A    between atoms: _472  and  _473
REMARK  188  A    between atoms: _472  and  _475
REMARK  189  A    between atoms: _475  and  _476
REMARK  190  A    between atoms: _476  and  _477
REMARK  191  A    between atoms: _477  and  _478
REMARK  192  A    between atoms: _478  and  _479
REMARK  193  A    between atoms: _483  and  _485
REMARK  194  A    between atoms: _485  and  _486
REMARK  195  A    between atoms: _485  and  _488
REMARK  196  A    between atoms: _488  and  _489
REMARK  197  A    between atoms: _492  and  _494
REMARK  198  A    between atoms: _494  and  _495
REMARK  199  A    between atoms: _494  and  _497
REMARK  200  A    between atoms: _500  and  _502
REMARK  201  A    between atoms: _502  and  _503
REMARK  202  A    between atoms: _502  and  _505
REMARK  203  A    between atoms: _505  and  _506
REMARK  204  A    between atoms: _509  and  _511
REMARK  205  A    between atoms: _511  and  _512
REMARK  206  A    between atoms: _511  and  _514
REMARK  207  A    between atoms: _514  and  _515
REMARK  208  A    between atoms: _517  and  _519
REMARK  209  A    between atoms: _519  and  _520
REMARK  210  A    between atoms: _522  and  _524
REMARK  211  A    between atoms: _524  and  _525
REMARK  212  A    between atoms: _524  and  _527
REMARK  213  A    between atoms: _527  and  _528
REMARK  214  A    between atoms: _531  and  _533
REMARK  215  A    between atoms: _533  and  _534
REMARK  216  A    between atoms: _533  and  _536
REMARK  217  A    between atoms: _536  and  _537
REMARK  218  A    between atoms: _540  and  _542
REMARK  219  A    between atoms: _542  and  _543
REMARK  220  A    between atoms: _542  and  _545
REMARK  221  A    between atoms: _545  and  _546
REMARK  222  A    between atoms: _551  and  _553
REMARK  223  A    between atoms: _553  and  _554
REMARK  224  A    between atoms: _553  and  _556
REMARK  225  A    between atoms: _556  and  _557
REMARK  226  A    between atoms: _560  and  _562
REMARK  227  A    between atoms: _562  and  _563
REMARK  228  A    between atoms: _562  and  _565
REMARK  229  A    between atoms: _565  and  _566
REMARK  230  A    between atoms: _566  and  _567
REMARK  231  A    between atoms: _567  and  _568
REMARK  232  A    between atoms: _577  and  _579
REMARK  233  A    between atoms: _579  and  _580
REMARK  234  A    between atoms: _579  and  _582
REMARK  235  A    between atoms: _582  and  _583
REMARK  236  A    between atoms: _586  and  _588
REMARK  237  A    between atoms: _588  and  _589
REMARK  238  A    between atoms: _588  and  _591
REMARK  239  A    between atoms: _591  and  _592
REMARK  240  A    between atoms: _595  and  _597
REMARK  241  A    between atoms: _597  and  _598
REMARK  242  A    between atoms: _600  and  _602
REMARK  243  A    between atoms: _602  and  _603
REMARK  244  A    between atoms: _602  and  _605
REMARK  245  A    between atoms: _605  and  _606
REMARK  246  A    between atoms: _606  and  _607
REMARK  247  A    between atoms: _607  and  _608
REMARK  248  A    between atoms: _617  and  _619
REMARK  249  A    between atoms: _619  and  _620
REMARK  250  A    between atoms: _619  and  _622
REMARK  251  A    between atoms: _622  and  _623
REMARK  252  A    between atoms: _629  and  _631
REMARK  253  A    between atoms: _631  and  _632
REMARK  254  A    between atoms: _635  and  _637
REMARK  255  A    between atoms: _637  and  _638
REMARK  256  A    between atoms: _637  and  _640
REMARK  257  A    between atoms: _640  and  _641
REMARK  258  A    between atoms: _644  and  _646
REMARK  259  A    between atoms: _646  and  _647
REMARK  260  A    between atoms: _646  and  _649
REMARK  261  A    between atoms: _649  and  _650
REMARK  262  A    between atoms: _652  and  _654
REMARK  263  A    between atoms: _654  and  _655
REMARK  264  A    between atoms: _654  and  _657
REMARK  265  A    between atoms: _657  and  _658
REMARK  266  A    between atoms: _658  and  _659
REMARK  267  A    between atoms: _664  and  _666
REMARK  268  A    between atoms: _666  and  _667
REMARK  269  A    between atoms: _666  and  _669
REMARK  270  A    between atoms: _669  and  _670
REMARK  271  A    between atoms: _672  and  _674
REMARK  272  A    between atoms: _674  and  _675
REMARK  273  A    between atoms: _674  and  _677
REMARK  274  A    between atoms: _677  and  _678
REMARK  275  A    between atoms: _680  and  _682
REMARK  276  A    between atoms: _682  and  _683
REMARK  277  A    between atoms: _682  and  _685
REMARK  278  A    between atoms: _685  and  _686
REMARK  279  A    between atoms: _689  and  _691
REMARK  280  A    between atoms: _691  and  _692
REMARK  281  A    between atoms: _691  and  _694
REMARK  282  A    between atoms: _697  and  _699
REMARK  283  A    between atoms: _699  and  _700
REMARK  284  A    between atoms: _702  and  _704
REMARK  285  A    between atoms: _704  and  _705
REMARK  286  A    between atoms: _708  and  _710
REMARK  287  A    between atoms: _710  and  _711
REMARK  288  A    between atoms: _710  and  _713
REMARK  289  A    between atoms: _716  and  _718
REMARK  290  A    between atoms: _718  and  _719
REMARK  291  A    between atoms: _718  and  _721
REMARK  292  A    between atoms: _721  and  _722
REMARK  293  A    between atoms: _722  and  _723
REMARK  294  A    between atoms: _725  and  _727
REMARK  295  A    between atoms: _727  and  _728
REMARK  296  A    between atoms: _727  and  _730
REMARK  297  A    between atoms: _730  and  _731
REMARK  298  A    between atoms: _731  and  _732
REMARK                            x       y       z     vdW  Elec       q    Type
REMARK                         _______ _______ _______ _____ _____    ______ ____
ROOT
ATOM      1  CA  GLN A   5       6.043  -8.685  33.186  0.00  0.00    +0.149 C 
ENDROOT
BRANCH   1   2
ATOM      2  C   GLN A   5       4.985  -8.589  34.263  0.00  0.00    +0.241 C 
ATOM      3  N   GLY A   6       5.138  -7.603  35.139  0.00  0.00    -0.295 N 
ATOM      4  H   GLY A   6       5.963  -6.973  35.073  0.00  0.00    +0.150 HD
ATOM      5  O   GLN A   5       4.066  -9.398  34.314  0.00  0.00    -0.273 OA
BRANCH   3   6
ATOM      6  CA  GLY A   6       4.161  -7.405  36.183  0.00  0.00    +0.176 C 
BRANCH   6   7
ATOM      7  C   GLY A   6       4.673  -7.695  37.575  0.00  0.00    +0.243 C 
ATOM      8  N   TYR A   7       4.171  -6.939  38.542  0.00  0.00    -0.297 N 
ATOM      9  H   TYR A   7       3.479  -6.198  38.313  0.00  0.00    +0.150 HD
ATOM     10  O   GLY A   6       5.503  -8.579  37.784  0.00  0.00    -0.273 OA
BRANCH   8  11
ATOM     11  CA  TYR A   7       4.582  -7.141  39.912  0.00  0.00    +0.153 C 
BRANCH  11  12
ATOM     12  C   TYR A   7       3.524  -7.968  40.610  0.00  0.00    +0.241 C 
ATOM     13  N   TYR A   8       3.957  -9.025  41.287  0.00  0.00    -0.298 N 
ATOM     14  H   TYR A   8       4.976  -9.223  41.345  0.00  0.00    +0.150 HD
ATOM     15  O   TYR A   7       2.332  -7.657  40.540  0.00  0.00    -0.273 OA
BRANCH  13  16
ATOM     16  CA  TYR A   8       3.005  -9.908  41.948  0.00  0.00    +0.141 C 
BRANCH  16  17
ATOM     17  C   TYR A   8       3.314 -10.243  43.417  0.00  0.00    +0.227 C 
ATOM     18  O   TYR A   8       4.460 -10.150  43.883  0.00  0.00    -0.286 OA
ENDBRANCH  16  17
BRANCH  16  19
ATOM     19  CB  TYR A   8       2.859 -11.190  41.116  0.00  0.00    +0.054 C 
BRANCH  19  20
ATOM     20  CG  TYR A   8       4.144 -11.983  40.991  0.00  0.00    -0.020 A 
ATOM     21  CD2 TYR A   8       4.532 -12.865  41.999  0.00  0.00    -0.001 A 
ATOM     22  CE2 TYR A   8       5.713 -13.593  41.911  0.00  0.00    +0.036 A 
ATOM     23  CZ  TYR A   8       6.537 -13.456  40.802  0.00  0.00    +0.134 A 
ATOM     24  CE1 TYR A   8       6.189 -12.587  39.777  0.00  0.00    +0.036 A 
ATOM     25  CD1 TYR A   8       4.979 -11.843  39.879  0.00  0.00    -0.001 A 
BRANCH  23  26
ATOM     26  OH  TYR A   8       7.693 -14.208  40.747  0.00  0.00    -0.506 OA
ATOM     27  HH  TYR A   8       8.475 -13.604  40.686  0.00  0.00    +0.292 HD
ENDBRANCH  23  26
ENDBRANCH  19  20
ENDBRANCH  16  19
ENDBRANCH  13  16
ENDBRANCH  11  12
BRANCH  11  28
ATOM     28  CB  TYR A   7       4.778  -5.801  40.598  0.00  0.00    +0.055 C 
BRANCH  28  29
ATOM     29  CG  TYR A   7       5.918  -5.027  40.000  0.00  0.00    -0.020 A 
ATOM     30  CD2 TYR A   7       7.213  -5.174  40.502  0.00  0.00    -0.001 A 
ATOM     31  CE2 TYR A   7       8.295  -4.515  39.920  0.00  0.00    +0.036 A 
ATOM     32  CZ  TYR A   7       8.082  -3.695  38.820  0.00  0.00    +0.134 A 
ATOM     33  CE1 TYR A   7       6.796  -3.527  38.297  0.00  0.00    +0.036 A 
ATOM     34  CD1 TYR A   7       5.721  -4.193  38.894  0.00  0.00    -0.001 A 
BRANCH  32  35
ATOM     35  OH  TYR A   7       9.149  -3.047  38.254  0.00  0.00    -0.506 OA
ATOM     36  HH  TYR A   7       8.836  -2.506  37.486  0.00  0.00    +0.292 HD
ENDBRANCH  32  35
ENDBRANCH  28  29
ENDBRANCH  11  28
ENDBRANCH   8  11
ENDBRANCH   6   7
ENDBRANCH   3   6
ENDBRANCH   1   2
BRANCH   1  38
ATOM     37  C   GLY A   4       8.291  -8.456  33.945  0.00  0.00    +0.243 C 
ATOM     38  N   GLN A   5       7.233  -9.227  33.763  0.00  0.00    -0.297 N 
ATOM     39  H   GLN A   5       7.266 -10.229  34.040  0.00  0.00    +0.150 HD
ATOM     40  O   GLY A   4       8.319  -7.261  33.618  0.00  0.00    -0.273 OA
BRANCH  37  41
ATOM     41  CA  GLY A   4       9.483  -9.144  34.571  0.00  0.00    +0.176 C 
BRANCH  41  43
ATOM     42  C   SER A   3      11.565  -7.993  34.819  0.00  0.00    +0.243 C 
ATOM     43  N   GLY A   4      10.320  -8.173  35.225  0.00  0.00    -0.295 N 
ATOM     44  H   GLY A   4       9.945  -7.613  36.017  0.00  0.00    +0.150 HD
ATOM     45  O   SER A   3      12.085  -8.641  33.905  0.00  0.00    -0.273 OA
BRANCH  42  46
ATOM     46  CA  SER A   3      12.323  -6.932  35.589  0.00  0.00    +0.178 C 
BRANCH  46  49
ATOM     47  C   LYS A   2      11.891  -6.207  37.864  0.00  0.00    +0.241 C 
ATOM     48  O   LYS A   2      11.939  -5.012  37.515  0.00  0.00    -0.273 OA
ATOM     49  N   SER A   3      12.096  -7.203  37.008  0.00  0.00    -0.295 N 
ATOM     50  H   SER A   3      12.095  -8.185  37.351  0.00  0.00    +0.150 HD
BRANCH  47  51
ATOM     51  CA  LYS A   2      11.623  -6.597  39.330  0.00  0.00    +0.149 C 
BRANCH  51  53
ATOM     52  C   GLY A   1       9.674  -8.027  38.782  0.00  0.00    +0.240 C 
ATOM     53  N   LYS A   2      10.721  -7.748  39.558  0.00  0.00    -0.297 N 
ATOM     54  H   LYS A   2      10.914  -8.372  40.367  0.00  0.00    +0.150 HD
ATOM     55  O   GLY A   1       9.398  -7.373  37.772  0.00  0.00    -0.274 OA
BRANCH  52  56
ATOM     56  CA  GLY A   1       8.819  -9.227  39.192  0.00  0.00    +0.169 C 
BRANCH  56  57
ATOM     57  N   GLY A   1       9.007  -9.599  40.591  0.00  0.00    -0.236 NA
ATOM     58  H   GLY A   1       9.950  -9.914  40.897  0.00  0.00    +0.142 HD
ENDBRANCH  56  57
ENDBRANCH  52  56
ENDBRANCH  51  53
BRANCH  51  59
ATOM     59  CB  LYS A   2      12.957  -6.835  40.048  0.00  0.00    +0.029 C 
BRANCH  59  60
ATOM     60  CG  LYS A   2      13.851  -5.600  40.151  0.00  0.00    +0.000 C 
BRANCH  60  61
ATOM     61  CD  LYS A   2      15.120  -5.903  40.940  0.00  0.00    -0.024 C 
BRANCH  61  62
ATOM     62  CE  LYS A   2      15.933  -4.651  41.206  0.00  0.00    -0.086 C 
BRANCH  62  63
ATOM     63  NZ  LYS A   2      17.268  -5.039  41.738  0.00  0.00    +0.380 N 
ATOM     64  HZ1 LYS A   2      17.146  -5.571  42.623  0.00  0.00    -0.089 HD
ATOM     65  HZ2 LYS A   2      17.829  -4.183  41.922  0.00  0.00    -0.089 HD
ATOM     66  HZ3 LYS A   2      17.759  -5.633  41.040  0.00  0.00    -0.089 HD
ENDBRANCH  62  63
ENDBRANCH  61  62
ENDBRANCH  60  61
ENDBRANCH  59  60
ENDBRANCH  51  59
ENDBRANCH  47  51
ENDBRANCH  46  49
BRANCH  46  67
ATOM     67  CB  SER A   3      13.819  -6.974  35.235  0.00  0.00    +0.166 C 
BRANCH  67  68
ATOM     68  OG  SER A   3      14.321  -5.670  35.007  0.00  0.00    -0.380 OA
ATOM     69  H   SER A   3      15.283  -5.723  34.781  0.00  0.00    +0.211 HD
ENDBRANCH  67  68
ENDBRANCH  46  67
ENDBRANCH  42  46
ENDBRANCH  41  43
ENDBRANCH  37  41
ENDBRANCH   1  38
BRANCH   1  70
ATOM     70  CB  GLN A   5       5.566  -9.563  32.031  0.00  0.00    +0.039 C 
BRANCH  70  71
ATOM     71  CG  GLN A   5       6.463  -9.525  30.783  0.00  0.00    +0.087 C 
BRANCH  71  72
ATOM     72  CD  GLN A   5       7.725 -10.352  30.924  0.00  0.00    +0.219 C 
ATOM     73  OE1 GLN A   5       8.652  -9.971  31.631  0.00  0.00    -0.275 OA
ATOM     74  NE2 GLN A   5       7.761 -11.502  30.252  0.00  0.00    -0.329 N 
ATOM     75 HE21 GLN A   5       8.598 -12.115  30.316  0.00  0.00    +0.145 HD
ATOM     76 HE22 GLN A   5       6.952 -11.786  29.664  0.00  0.00    +0.145 HD
ENDBRANCH  71  72
ENDBRANCH  70  71
ENDBRANCH   1  70
TORSDOF 32
REMARK  Name = ../refined-set-2016/2vkm/2vkm_pocket.pdb
REMARK  298 active torsions:
REMARK  status: ('A' for Active; 'I' for Inactive)
REMARK    1  A    between atoms: _1  and  _3
REMARK    2  A    between atoms: _3  and  _4
REMARK    3  A    between atoms: _6  and  _8
REMARK    4  A    between atoms: _8  and  _9
REMARK    5  A    between atoms: _8  and  _11
REMARK    6  A    between atoms: _11  and  _12
REMARK    7  A    between atoms: _12  and  _13
REMARK    8  A    between atoms: _13  and  _14
REMARK    9  A    between atoms: _14  and  _15
REMARK   10  A    between atoms: _19  and  _21
REMARK   11  A    between atoms: _21  and  _22
REMARK   12  A    between atoms: _21  and  _24
REMARK   13  A    between atoms: _24  and  _25
REMARK   14  A    between atoms: _27  and  _29
REMARK   15  A    between atoms: _29  and  _30
REMARK   16  A    between atoms: _32  and  _34
REMARK   17  A    between atoms: _34  and  _35
REMARK   18  A    between atoms: _34  and  _37
REMARK   19  A    between atoms: _37  and  _38
REMARK   20  A    between atoms: _38  and  _39
REMARK   21  A    between atoms: _44  and  _46
REMARK   22  A    between atoms: _46  and  _47
REMARK   23  A    between atoms: _49  and  _51
REMARK   24  A    between atoms: _51  and  _52
REMARK   25  A    between atoms: _51  and  _54
REMARK   26  A    between atoms: _54  and  _55
REMARK   27  A    between atoms: _60  and  _61
REMARK   28  A    between atoms: _63  and  _65
REMARK   29  A    between atoms: _65  and  _66
REMARK   30  A    between atoms: _65  and  _68
REMARK   31  A    between atoms: _68  and  _69
REMARK   32  A    between atoms: _74  and  _75
REMARK   33  A    between atoms: _77  and  _79
REMARK   34  A    between atoms: _79  and  _80
REMARK   35  A    between atoms: _79  and  _82
REMARK   36  A    between atoms: _82  and  _83
REMARK   37  A    between atoms: _86  and  _88
REMARK   38  A    between atoms: _88  and  _89
REMARK   39  A    between atoms: _88  and  _91
REMARK   40  A    between atoms: _94  and  _96
REMARK   41  A    between atoms: _96  and  _97
REMARK   42  A    between atoms: _96  and  _99
REMARK   43  A    between atoms: _99  and  _100
REMARK   44  A    between atoms: _103  and  _105
REMARK   45  A    between atoms: _105  and  _106
REMARK   46  A    between atoms: _105  and  _108
REMARK   47  A    between atoms: _108  and  _109
REMARK   48  A    between atoms: _112  and  _114
REMARK   49  A    between atoms: _114  and  _115
REMARK   50  A    between atoms: _117  and  _119
REMARK   51  A    between atoms: _119  and  _120
REMARK   52  A    between atoms: _119  and  _122
REMARK   53  A    between atoms: _122  and  _123
REMARK   54  A    between atoms: _125  and  _127
REMARK   55  A    between atoms: _127  and  _128
REMARK   56  A    between atoms: _127  and  _130
REMARK   57  A    between atoms: _130  and  _131
REMARK   58  A    between atoms: _133  and  _135
REMARK   59  A    between atoms: _135  and  _136
REMARK   60  A    between atoms: _135  and  _138
REMARK   61  A    between atoms: _138  and  _139
REMARK   62  A    between atoms: _144  and  _146
REMARK   63  A    between atoms: _146  and  _147
REMARK   64  A    between atoms: _146  and  _149
REMARK   65  A    between atoms: _153  and  _154
REMARK   66  A    between atoms: _159  and  _161
REMARK   67  A    between atoms: _161  and  _162
REMARK   68  A    between atoms: _161  and  _164
REMARK   69  A    between atoms: _164  and  _165
REMARK   70  A    between atoms: _170  and  _171
REMARK   71  A    between atoms: _173  and  _175
REMARK   72  A    between atoms: _175  and  _176
REMARK   73  A    between atoms: _175  and  _178
REMARK   74  A    between atoms: _178  and  _179
REMARK   75  A    between atoms: _182  and  _184
REMARK   76  A    between atoms: _184  and  _185
REMARK   77  A    between atoms: _184  and  _187
REMARK   78  A    between atoms: _187  and  _188
REMARK   79  A    between atoms: _188  and  _189
REMARK   80  A    between atoms: _194  and  _196
REMARK   81  A    between atoms: _196  and  _197
REMARK   82  A    between atoms: _199  and  _201
REMARK   83  A    between atoms: _201  and  _202
REMARK   84  A    between atoms: _201  and  _204
REMARK   85  A    between atoms: _204  and  _205
REMARK   86  A    between atoms: _205  and  _206
REMARK   87  A    between atoms: _206  and  _207
REMARK   88  A    between atoms: _207  and  _208
REMARK   89  A    between atoms: _212  and  _214
REMARK   90  A    between atoms: _214  and  _215
REMARK   91  A    between atoms: _214  and  _217
REMARK   92  A    between atoms: _217  and  _218
REMARK   93  A    between atoms: _228  and  _230
REMARK   94  A    between atoms: _230  and  _231
REMARK   95  A    between atoms: _230  and  _233
REMARK   96  A    between atoms: _233  and  _234
REMARK   97  A    between atoms: _237  and  _239
REMARK   98  A    between atoms: _239  and  _240
REMARK   99  A    between atoms: _239  and  _242
REMARK  100  A    between atoms: _242  and  _243
REMARK  101  A    between atoms: _243  and  _244
REMARK  102  A    between atoms: _244  and  _245
REMARK  103  A    between atoms: _245  and  _246
REMARK  104  A    between atoms: _250  and  _252
REMARK  105  A    between atoms: _252  and  _253
REMARK  106  A    between atoms: _252  and  _255
REMARK  107  A    between atoms: _255  and  _256
REMARK  108  A    between atoms: _262  and  _264
REMARK  109  A    between atoms: _264  and  _265
REMARK  110  A    between atoms: _264  and  _267
REMARK  111  A    between atoms: _267  and  _268
REMARK  112  A    between atoms: _274  and  _276
REMARK  113  A    between atoms: _276  and  _277
REMARK  114  A    between atoms: _276  and  _279
REMARK  115  A    between atoms: _279  and  _280
REMARK  116  A    between atoms: _283  and  _285
REMARK  117  A    between atoms: _285  and  _286
REMARK  118  A    between atoms: _285  and  _288
REMARK  119  A    between atoms: _288  and  _289
REMARK  120  A    between atoms: _291  and  _293
REMARK  121  A    between atoms: _293  and  _294
REMARK  122  A    between atoms: _293  and  _296
REMARK  123  A    between atoms: _296  and  _297
REMARK  124  A    between atoms: _307  and  _309
REMARK  125  A    between atoms: _309  and  _310
REMARK  126  A    between atoms: _312  and  _314
REMARK  127  A    between atoms: _314  and  _315
REMARK  128  A    between atoms: _314  and  _317
REMARK  129  A    between atoms: _317  and  _318
REMARK  130  A    between atoms: _321  and  _323
REMARK  131  A    between atoms: _323  and  _324
REMARK  132  A    between atoms: _323  and  _326
REMARK  133  A    between atoms: _326  and  _327
REMARK  134  A    between atoms: _330  and  _332
REMARK  135  A    between atoms: _332  and  _333
REMARK  136  A    between atoms: _335  and  _337
REMARK  137  A    between atoms: _337  and  _338
REMARK  138  A    between atoms: _337  and  _340
REMARK  139  A    between atoms: _340  and  _341
REMARK  140  A    between atoms: _344  and  _346
REMARK  141  A    between atoms: _346  and  _347
REMARK  142  A    between atoms: _350  and  _352
REMARK  143  A    between atoms: _352  and  _353
REMARK  144  A    between atoms: _352  and  _355
REMARK  145  A    between atoms: _355  and  _356
REMARK  146  A    between atoms: _361  and  _362
REMARK  147  A    between atoms: _364  and  _366
REMARK  148  A    between atoms: _366  and  _367
REMARK  149  A    between atoms: _370  and  _372
REMARK  150  A    between atoms: _372  and  _373
REMARK  151  A    between atoms: _372  and  _375
REMARK  152  A    between atoms: _375  and  _376
REMARK  153  A    between atoms: _376  and  _377
REMARK  154  A    between atoms: _380  and  _382
REMARK  155  A    between atoms: _382  and  _383
REMARK  156  A    between atoms: _382  and  _385
REMARK  157  A    between atoms: _385  and  _386
REMARK  158  A    between atoms: _389  and  _391
REMARK  159  A    between atoms: _391  and  _392
REMARK  160  A    between atoms: _395  and  _397
REMARK  161  A    between atoms: _397  and  _398
REMARK  162  A    between atoms: _397  and  _400
REMARK  163  A    between atoms: _400  and  _401
REMARK  164  A    between atoms: _401  and  _402
REMARK  165  A    between atoms: _402  and  _403
REMARK  166  A    between atoms: _412  and  _414
REMARK  167  A    between atoms: _414  and  _415
REMARK  168  A    between atoms: _414  and  _417
REMARK  169  A    between atoms: _417  and  _418
REMARK  170  A    between atoms: _421  and  _423
REMARK  171  A    between atoms: _423  and  _424
REMARK  172  A    between atoms: _426  and  _428
REMARK  173  A    between atoms: _428  and  _429
REMARK  174  A    between atoms: _428  and  _431
REMARK  175  A    between atoms: _431  and  _432
REMARK  176  A    between atoms: _442  and  _444
REMARK  177  A    between atoms: _444  and  _445
REMARK  178  A    between atoms: _444  and  _447
REMARK  179  A    between atoms: _447  and  _448
REMARK  180  A    between atoms: _453  and  _454
REMARK  181  A    between atoms: _456  and  _458
REMARK  182  A    between atoms: _458  and  _459
REMARK  183  A    between atoms: _458  and  _461
REMARK  184  A    between atoms: _461  and  _462
REMARK  185  A    between atoms: _467  and  _468
REMARK  186  A    between atoms: _470  and  _472
REMARK  187  A    between atoms: _472  and  _473
REMARK  188  A    between atoms: _472  and  _475
REMARK  189  A    between atoms: _475  and  _476
REMARK  190  A    between atoms: _476  and  _477
REMARK  191  A    between atoms: _477  and  _478
REMARK  192  A    between atoms: _478  and  _479
REMARK  193  A    between atoms: _483  and  _485
REMARK  194  A    between atoms: _485  and  _486
REMARK  195  A    between atoms: _485  and  _488
REMARK  196  A    between atoms: _488  and  _489
REMARK  197  A    between atoms: _492  and  _494
REMARK  198  A    between atoms: _494  and  _495
REMARK  199  A    between atoms: _494  and  _497
REMARK  200  A    between atoms: _500  and  _502
REMARK  201  A    between atoms: _502  and  _503
REMARK  202  A    between atoms: _502  and  _505
REMARK  203  A    between atoms: _505  and  _506
REMARK  204  A    between atoms: _509  and  _511
REMARK  205  A    between atoms: _511  and  _512
REMARK  206  A    between atoms: _511  and  _514
REMARK  207  A    between atoms: _514  and  _515
REMARK  208  A    between atoms: _517  and  _519
REMARK  209  A    between atoms: _519  and  _520
REMARK  210  A    between atoms: _522  and  _524
REMARK  211  A    between atoms: _524  and  _525
REMARK  212  A    between atoms: _524  and  _527
REMARK  213  A    between atoms: _527  and  _528
REMARK  214  A    between atoms: _531  and  _533
REMARK  215  A    between atoms: _533  and  _534
REMARK  216  A    between atoms: _533  and  _536
REMARK  217  A    between atoms: _536  and  _537
REMARK  218  A    between atoms: _540  and  _542
REMARK  219  A    between atoms: _542  and  _543
REMARK  220  A    between atoms: _542  and  _545
REMARK  221  A    between atoms: _545  and  _546
REMARK  222  A    between atoms: _551  and  _553
REMARK  223  A    between atoms: _553  and  _554
REMARK  224  A    between atoms: _553  and  _556
REMARK  225  A    between atoms: _556  and  _557
REMARK  226  A    between atoms: _560  and  _562
REMARK  227  A    between atoms: _562  and  _563
REMARK  228  A    between atoms: _562  and  _565
REMARK  229  A    between atoms: _565  and  _566
REMARK  230  A    between atoms: _566  and  _567
REMARK  231  A    between atoms: _567  and  _568
REMARK  232  A    between atoms: _577  and  _579
REMARK  233  A    between atoms: _579  and  _580
REMARK  234  A    between atoms: _579  and  _582
REMARK  235  A    between atoms: _582  and  _583
REMARK  236  A    between atoms: _586  and  _588
REMARK  237  A    between atoms: _588  and  _589
REMARK  238  A    between atoms: _588  and  _591
REMARK  239  A    between atoms: _591  and  _592
REMARK  240  A    between atoms: _595  and  _597
REMARK  241  A    between atoms: _597  and  _598
REMARK  242  A    between atoms: _600  and  _602
REMARK  243  A    between atoms: _602  and  _603
REMARK  244  A    between atoms: _602  and  _605
REMARK  245  A    between atoms: _605  and  _606
REMARK  246  A    between atoms: _606  and  _607
REMARK  247  A    between atoms: _607  and  _608
REMARK  248  A    between atoms: _617  and  _619
REMARK  249  A    between atoms: _619  and  _620
REMARK  250  A    between atoms: _619  and  _622
REMARK  251  A    between atoms: _622  and  _623
REMARK  252  A    between atoms: _629  and  _631
REMARK  253  A    between atoms: _631  and  _632
REMARK  254  A    between atoms: _635  and  _637
REMARK  255  A    between atoms: _637  and  _638
REMARK  256  A    between atoms: _637  and  _640
REMARK  257  A    between atoms: _640  and  _641
REMARK  258  A    between atoms: _644  and  _646
REMARK  259  A    between atoms: _646  and  _647
REMARK  260  A    between atoms: _646  and  _649
REMARK  261  A    between atoms: _649  and  _650
REMARK  262  A    between atoms: _652  and  _654
REMARK  263  A    between atoms: _654  and  _655
REMARK  264  A    between atoms: _654  and  _657
REMARK  265  A    between atoms: _657  and  _658
REMARK  266  A    between atoms: _658  and  _659
REMARK  267  A    between atoms: _664  and  _666
REMARK  268  A    between atoms: _666  and  _667
REMARK  269  A    between atoms: _666  and  _669
REMARK  270  A    between atoms: _669  and  _670
REMARK  271  A    between atoms: _672  and  _674
REMARK  272  A    between atoms: _674  and  _675
REMARK  273  A    between atoms: _674  and  _677
REMARK  274  A    between atoms: _677  and  _678
REMARK  275  A    between atoms: _680  and  _682
REMARK  276  A    between atoms: _682  and  _683
REMARK  277  A    between atoms: _682  and  _685
REMARK  278  A    between atoms: _685  and  _686
REMARK  279  A    between atoms: _689  and  _691
REMARK  280  A    between atoms: _691  and  _692
REMARK  281  A    between atoms: _691  and  _694
REMARK  282  A    between atoms: _697  and  _699
REMARK  283  A    between atoms: _699  and  _700
REMARK  284  A    between atoms: _702  and  _704
REMARK  285  A    between atoms: _704  and  _705
REMARK  286  A    between atoms: _708  and  _710
REMARK  287  A    between atoms: _710  and  _711
REMARK  288  A    between atoms: _710  and  _713
REMARK  289  A    between atoms: _716  and  _718
REMARK  290  A    between atoms: _718  and  _719
REMARK  291  A    between atoms: _718  and  _721
REMARK  292  A    between atoms: _721  and  _722
REMARK  293  A    between atoms: _722  and  _723
REMARK  294  A    between atoms: _725  and  _727
REMARK  295  A    between atoms: _727  and  _728
REMARK  296  A    between atoms: _727  and  _730
REMARK  297  A    between atoms: _730  and  _731
REMARK  298  A    between atoms: _731  and  _732
REMARK                            x       y       z     vdW  Elec       q    Type
REMARK                         _______ _______ _______ _____ _____    ______ ____
ROOT
ATOM      1  C   THR A   4      -5.553  -0.356  39.534  0.00  0.00    +0.243 C 
ATOM      2  O   THR A   4      -6.355   0.563  39.687  0.00  0.00    -0.273 OA
ATOM      3  N   GLY A   5      -5.382  -0.963  38.363  0.00  0.00    -0.295 N 
ATOM      4  H   GLY A   5      -4.715  -1.757  38.281  0.00  0.00    +0.150 HD
ENDROOT
BRANCH   1   5
ATOM      5  CA  THR A   4      -4.740  -0.887  40.706  0.00  0.00    +0.176 C 
BRANCH   5   8
ATOM      6  C   ASP A   3      -4.372  -3.201  40.086  0.00  0.00    +0.241 C 
ATOM      7  O   ASP A   3      -5.547  -3.483  40.332  0.00  0.00    -0.273 OA
ATOM      8  N   THR A   4      -3.879  -1.969  40.245  0.00  0.00    -0.295 N 
ATOM      9  H   THR A   4      -2.877  -1.782  40.039  0.00  0.00    +0.150 HD
BRANCH   6  10
ATOM     10  CA  ASP A   3      -3.415  -4.276  39.573  0.00  0.00    +0.160 C 
BRANCH  10  12
ATOM     11  C   VAL A   2      -1.544  -5.387  40.704  0.00  0.00    +0.241 C 
ATOM     12  N   ASP A   3      -2.860  -5.188  40.581  0.00  0.00    -0.297 N 
ATOM     13  H   ASP A   3      -3.509  -5.693  41.217  0.00  0.00    +0.150 HD
ATOM     14  O   VAL A   2      -0.696  -4.803  40.013  0.00  0.00    -0.273 OA
BRANCH  11  15
ATOM     15  CA  VAL A   2      -1.124  -6.419  41.746  0.00  0.00    +0.148 C 
BRANCH  15  17
ATOM     16  C   LEU A   1      -1.225  -8.535  40.551  0.00  0.00    +0.238 C 
ATOM     17  N   VAL A   2      -0.508  -7.534  41.039  0.00  0.00    -0.297 N 
ATOM     18  H   VAL A   2       0.524  -7.544  40.914  0.00  0.00    +0.150 HD
ATOM     19  O   LEU A   1      -2.449  -8.597  40.671  0.00  0.00    -0.274 OA
BRANCH  16  20
ATOM     20  CA  LEU A   1      -0.453  -9.631  39.827  0.00  0.00    +0.145 C 
BRANCH  20  21
ATOM     21  N   LEU A   1      -0.836 -10.935  40.339  0.00  0.00    -0.238 NA
ATOM     22  H   LEU A   1      -1.318 -11.596  39.697  0.00  0.00    +0.142 HD
ENDBRANCH  20  21
BRANCH  20  23
ATOM     23  CB  LEU A   1      -0.775  -9.545  38.344  0.00  0.00    +0.026 C 
BRANCH  23  24
ATOM     24  CG  LEU A   1      -0.434  -8.211  37.696  0.00  0.00    +0.002 C 
ATOM     25  CD2 LEU A   1       0.890  -8.322  36.987  0.00  0.00    +0.000 C 
ATOM     26  CD1 LEU A   1      -1.506  -7.841  36.704  0.00  0.00    +0.000 C 
ENDBRANCH  23  24
ENDBRANCH  20  23
ENDBRANCH  16  20
ENDBRANCH  15  17
BRANCH  15  27
ATOM     27  CB  VAL A   2      -0.125  -5.839  42.757  0.00  0.00    +0.027 C 
ATOM     28  CG2 VAL A   2       0.030  -6.823  43.881  0.00  0.00    +0.002 C 
ATOM     29  CG1 VAL A   2      -0.600  -4.495  43.284  0.00  0.00    +0.002 C 
ENDBRANCH  15  27
ENDBRANCH  11  15
ENDBRANCH  10  12
BRANCH  10  30
ATOM     30  CB  ASP A   3      -4.114  -5.109  38.480  0.00  0.00    +0.143 C 
BRANCH  30  31
ATOM     31  CG  ASP A   3      -4.731  -4.244  37.382  0.00  0.00    +0.367 C 
ATOM     32  OD2 ASP A   3      -4.271  -3.104  37.217  0.00  0.00    -0.246 OA
ATOM     33  OD1 ASP A   3      -5.662  -4.696  36.678  0.00  0.00    -0.246 OA
ENDBRANCH  30  31
ENDBRANCH  10  30
ENDBRANCH   6  10
ENDBRANCH   5   8
BRANCH   5  34
ATOM     34  CB  THR A   4      -3.938   0.274  41.367  0.00  0.00    +0.137 C 
ATOM     35  CG2 THR A   4      -3.104  -0.255  42.514  0.00  0.00    +0.034 C 
BRANCH  34  36
ATOM     36  OG1 THR A   4      -3.052   0.871  40.414  0.00  0.00    -0.382 OA
ATOM     37  HG1 THR A   4      -3.578   1.231  39.656  0.00  0.00    +0.210 HD
ENDBRANCH  34  36
ENDBRANCH   5  34
ENDBRANCH   1   5
BRANCH   3  38
ATOM     38  CA  GLY A   5      -6.127  -0.516  37.198  0.00  0.00    +0.176 C 
BRANCH  38  39
ATOM     39  C   GLY A   5      -7.458  -1.207  36.919  0.00  0.00    +0.243 C 
ATOM     40  N   SER A   6      -7.824  -2.195  37.729  0.00  0.00    -0.295 N 
ATOM     41  H   SER A   6      -7.204  -2.463  38.520  0.00  0.00    +0.150 HD
ATOM     42  O   GLY A   5      -8.151  -0.853  35.959  0.00  0.00    -0.273 OA
BRANCH  40  43
ATOM     43  CA  SER A   6      -9.091  -2.916  37.527  0.00  0.00    +0.178 C 
BRANCH  43  44
ATOM     44  C   SER A   6      -9.641  -3.358  38.886  0.00  0.00    +0.243 C 
ATOM     45  O   SER A   6      -9.032  -3.072  39.924  0.00  0.00    -0.273 OA
ATOM     46  N   SER A   7     -10.762  -4.069  38.892  0.00  0.00    -0.295 N 
ATOM     47  H   SER A   7     -11.202  -4.366  37.998  0.00  0.00    +0.150 HD
BRANCH  46  48
ATOM     48  CA  SER A   7     -11.371  -4.430  40.175  0.00  0.00    +0.178 C 
BRANCH  48  49
ATOM     49  C   SER A   7     -11.828  -5.878  40.351  0.00  0.00    +0.243 C 
ATOM     50  O   SER A   7     -12.578  -6.182  41.281  0.00  0.00    -0.273 OA
ATOM     51  N   ASN A   8     -11.384  -6.764  39.470  0.00  0.00    -0.298 N 
ATOM     52  H   ASN A   8     -10.779  -6.454  38.683  0.00  0.00    +0.150 HD
BRANCH  51  53
ATOM     53  CA  ASN A   8     -11.740  -8.167  39.601  0.00  0.00    +0.146 C 
BRANCH  53  54
ATOM     54  C   ASN A   8     -10.573  -8.992  40.122  0.00  0.00    +0.227 C 
ATOM     55  O   ASN A   8      -9.423  -8.792  39.713  0.00  0.00    -0.286 OA
ENDBRANCH  53  54
BRANCH  53  56
ATOM     56  CB  ASN A   8     -12.190  -8.765  38.259  0.00  0.00    +0.112 C 
BRANCH  56  57
ATOM     57  CG  ASN A   8     -13.626  -8.397  37.903  0.00  0.00    +0.222 C 
ATOM     58  ND2 ASN A   8     -14.562  -9.305  38.179  0.00  0.00    -0.329 N 
ATOM     59 HD21 ASN A   8     -14.294 -10.214  38.607  0.00  0.00    +0.145 HD
ATOM     60 HD22 ASN A   8     -15.560  -9.104  37.966  0.00  0.00    +0.145 HD
ATOM     61  OD1 ASN A   8     -13.887  -7.314  37.400  0.00  0.00    -0.275 OA
ENDBRANCH  56  57
ENDBRANCH  53  56
ENDBRANCH  51  53
ENDBRANCH  48  49
BRANCH  48  62
ATOM     62  CB  SER A   7     -12.550  -3.481  40.454  0.00  0.00    +0.166 C 
BRANCH  62  63
ATOM     63  OG  SER A   7     -12.190  -2.135  40.176  0.00  0.00    -0.380 OA
ATOM     64  H   SER A   7     -12.961  -1.543  40.362  0.00  0.00    +0.211 HD
ENDBRANCH  62  63
ENDBRANCH  48  62
ENDBRANCH  46  48
ENDBRANCH  43  44
BRANCH  43  65
ATOM     65  CB  SER A   6      -8.899  -4.134  36.602  0.00  0.00    +0.166 C 
BRANCH  65  66
ATOM     66  OG  SER A   6      -8.100  -5.124  37.225  0.00  0.00    -0.380 OA
ATOM     67  H   SER A   6      -7.211  -4.743  37.438  0.00  0.00    +0.211 HD
ENDBRANCH  65  66
ENDBRANCH  43  65
ENDBRANCH  40  43
ENDBRANCH  38  39
ENDBRANCH   3  38
TORSDOF 29
REMARK  Name = ../refined-set-2016/2vkm/2vkm_pocket.pdb
REMARK  298 active torsions:
REMARK  status: ('A' for Active; 'I' for Inactive)
REMARK    1  A    between atoms: _1  and  _3
REMARK    2  A    between atoms: _3  and  _4
REMARK    3  A    between atoms: _6  and  _8
REMARK    4  A    between atoms: _8  and  _9
REMARK    5  A    between atoms: _8  and  _11
REMARK    6  A    between atoms: _11  and  _12
REMARK    7  A    between atoms: _12  and  _13
REMARK    8  A    between atoms: _13  and  _14
REMARK    9  A    between atoms: _14  and  _15
REMARK   10  A    between atoms: _19  and  _21
REMARK   11  A    between atoms: _21  and  _22
REMARK   12  A    between atoms: _21  and  _24
REMARK   13  A    between atoms: _24  and  _25
REMARK   14  A    between atoms: _27  and  _29
REMARK   15  A    between atoms: _29  and  _30
REMARK   16  A    between atoms: _32  and  _34
REMARK   17  A    between atoms: _34  and  _35
REMARK   18  A    between atoms: _34  and  _37
REMARK   19  A    between atoms: _37  and  _38
REMARK   20  A    between atoms: _38  and  _39
REMARK   21  A    between atoms: _44  and  _46
REMARK   22  A    between atoms: _46  and  _47
REMARK   23  A    between atoms: _49  and  _51
REMARK   24  A    between atoms: _51  and  _52
REMARK   25  A    between atoms: _51  and  _54
REMARK   26  A    between atoms: _54  and  _55
REMARK   27  A    between atoms: _60  and  _61
REMARK   28  A    between atoms: _63  and  _65
REMARK   29  A    between atoms: _65  and  _66
REMARK   30  A    between atoms: _65  and  _68
REMARK   31  A    between atoms: _68  and  _69
REMARK   32  A    between atoms: _74  and  _75
REMARK   33  A    between atoms: _77  and  _79
REMARK   34  A    between atoms: _79  and  _80
REMARK   35  A    between atoms: _79  and  _82
REMARK   36  A    between atoms: _82  and  _83
REMARK   37  A    between atoms: _86  and  _88
REMARK   38  A    between atoms: _88  and  _89
REMARK   39  A    between atoms: _88  and  _91
REMARK   40  A    between atoms: _94  and  _96
REMARK   41  A    between atoms: _96  and  _97
REMARK   42  A    between atoms: _96  and  _99
REMARK   43  A    between atoms: _99  and  _100
REMARK   44  A    between atoms: _103  and  _105
REMARK   45  A    between atoms: _105  and  _106
REMARK   46  A    between atoms: _105  and  _108
REMARK   47  A    between atoms: _108  and  _109
REMARK   48  A    between atoms: _112  and  _114
REMARK   49  A    between atoms: _114  and  _115
REMARK   50  A    between atoms: _117  and  _119
REMARK   51  A    between atoms: _119  and  _120
REMARK   52  A    between atoms: _119  and  _122
REMARK   53  A    between atoms: _122  and  _123
REMARK   54  A    between atoms: _125  and  _127
REMARK   55  A    between atoms: _127  and  _128
REMARK   56  A    between atoms: _127  and  _130
REMARK   57  A    between atoms: _130  and  _131
REMARK   58  A    between atoms: _133  and  _135
REMARK   59  A    between atoms: _135  and  _136
REMARK   60  A    between atoms: _135  and  _138
REMARK   61  A    between atoms: _138  and  _139
REMARK   62  A    between atoms: _144  and  _146
REMARK   63  A    between atoms: _146  and  _147
REMARK   64  A    between atoms: _146  and  _149
REMARK   65  A    between atoms: _153  and  _154
REMARK   66  A    between atoms: _159  and  _161
REMARK   67  A    between atoms: _161  and  _162
REMARK   68  A    between atoms: _161  and  _164
REMARK   69  A    between atoms: _164  and  _165
REMARK   70  A    between atoms: _170  and  _171
REMARK   71  A    between atoms: _173  and  _175
REMARK   72  A    between atoms: _175  and  _176
REMARK   73  A    between atoms: _175  and  _178
REMARK   74  A    between atoms: _178  and  _179
REMARK   75  A    between atoms: _182  and  _184
REMARK   76  A    between atoms: _184  and  _185
REMARK   77  A    between atoms: _184  and  _187
REMARK   78  A    between atoms: _187  and  _188
REMARK   79  A    between atoms: _188  and  _189
REMARK   80  A    between atoms: _194  and  _196
REMARK   81  A    between atoms: _196  and  _197
REMARK   82  A    between atoms: _199  and  _201
REMARK   83  A    between atoms: _201  and  _202
REMARK   84  A    between atoms: _201  and  _204
REMARK   85  A    between atoms: _204  and  _205
REMARK   86  A    between atoms: _205  and  _206
REMARK   87  A    between atoms: _206  and  _207
REMARK   88  A    between atoms: _207  and  _208
REMARK   89  A    between atoms: _212  and  _214
REMARK   90  A    between atoms: _214  and  _215
REMARK   91  A    between atoms: _214  and  _217
REMARK   92  A    between atoms: _217  and  _218
REMARK   93  A    between atoms: _228  and  _230
REMARK   94  A    between atoms: _230  and  _231
REMARK   95  A    between atoms: _230  and  _233
REMARK   96  A    between atoms: _233  and  _234
REMARK   97  A    between atoms: _237  and  _239
REMARK   98  A    between atoms: _239  and  _240
REMARK   99  A    between atoms: _239  and  _242
REMARK  100  A    between atoms: _242  and  _243
REMARK  101  A    between atoms: _243  and  _244
REMARK  102  A    between atoms: _244  and  _245
REMARK  103  A    between atoms: _245  and  _246
REMARK  104  A    between atoms: _250  and  _252
REMARK  105  A    between atoms: _252  and  _253
REMARK  106  A    between atoms: _252  and  _255
REMARK  107  A    between atoms: _255  and  _256
REMARK  108  A    between atoms: _262  and  _264
REMARK  109  A    between atoms: _264  and  _265
REMARK  110  A    between atoms: _264  and  _267
REMARK  111  A    between atoms: _267  and  _268
REMARK  112  A    between atoms: _274  and  _276
REMARK  113  A    between atoms: _276  and  _277
REMARK  114  A    between atoms: _276  and  _279
REMARK  115  A    between atoms: _279  and  _280
REMARK  116  A    between atoms: _283  and  _285
REMARK  117  A    between atoms: _285  and  _286
REMARK  118  A    between atoms: _285  and  _288
REMARK  119  A    between atoms: _288  and  _289
REMARK  120  A    between atoms: _291  and  _293
REMARK  121  A    between atoms: _293  and  _294
REMARK  122  A    between atoms: _293  and  _296
REMARK  123  A    between atoms: _296  and  _297
REMARK  124  A    between atoms: _307  and  _309
REMARK  125  A    between atoms: _309  and  _310
REMARK  126  A    between atoms: _312  and  _314
REMARK  127  A    between atoms: _314  and  _315
REMARK  128  A    between atoms: _314  and  _317
REMARK  129  A    between atoms: _317  and  _318
REMARK  130  A    between atoms: _321  and  _323
REMARK  131  A    between atoms: _323  and  _324
REMARK  132  A    between atoms: _323  and  _326
REMARK  133  A    between atoms: _326  and  _327
REMARK  134  A    between atoms: _330  and  _332
REMARK  135  A    between atoms: _332  and  _333
REMARK  136  A    between atoms: _335  and  _337
REMARK  137  A    between atoms: _337  and  _338
REMARK  138  A    between atoms: _337  and  _340
REMARK  139  A    between atoms: _340  and  _341
REMARK  140  A    between atoms: _344  and  _346
REMARK  141  A    between atoms: _346  and  _347
REMARK  142  A    between atoms: _350  and  _352
REMARK  143  A    between atoms: _352  and  _353
REMARK  144  A    between atoms: _352  and  _355
REMARK  145  A    between atoms: _355  and  _356
REMARK  146  A    between atoms: _361  and  _362
REMARK  147  A    between atoms: _364  and  _366
REMARK  148  A    between atoms: _366  and  _367
REMARK  149  A    between atoms: _370  and  _372
REMARK  150  A    between atoms: _372  and  _373
REMARK  151  A    between atoms: _372  and  _375
REMARK  152  A    between atoms: _375  and  _376
REMARK  153  A    between atoms: _376  and  _377
REMARK  154  A    between atoms: _380  and  _382
REMARK  155  A    between atoms: _382  and  _383
REMARK  156  A    between atoms: _382  and  _385
REMARK  157  A    between atoms: _385  and  _386
REMARK  158  A    between atoms: _389  and  _391
REMARK  159  A    between atoms: _391  and  _392
REMARK  160  A    between atoms: _395  and  _397
REMARK  161  A    between atoms: _397  and  _398
REMARK  162  A    between atoms: _397  and  _400
REMARK  163  A    between atoms: _400  and  _401
REMARK  164  A    between atoms: _401  and  _402
REMARK  165  A    between atoms: _402  and  _403
REMARK  166  A    between atoms: _412  and  _414
REMARK  167  A    between atoms: _414  and  _415
REMARK  168  A    between atoms: _414  and  _417
REMARK  169  A    between atoms: _417  and  _418
REMARK  170  A    between atoms: _421  and  _423
REMARK  171  A    between atoms: _423  and  _424
REMARK  172  A    between atoms: _426  and  _428
REMARK  173  A    between atoms: _428  and  _429
REMARK  174  A    between atoms: _428  and  _431
REMARK  175  A    between atoms: _431  and  _432
REMARK  176  A    between atoms: _442  and  _444
REMARK  177  A    between atoms: _444  and  _445
REMARK  178  A    between atoms: _444  and  _447
REMARK  179  A    between atoms: _447  and  _448
REMARK  180  A    between atoms: _453  and  _454
REMARK  181  A    between atoms: _456  and  _458
REMARK  182  A    between atoms: _458  and  _459
REMARK  183  A    between atoms: _458  and  _461
REMARK  184  A    between atoms: _461  and  _462
REMARK  185  A    between atoms: _467  and  _468
REMARK  186  A    between atoms: _470  and  _472
REMARK  187  A    between atoms: _472  and  _473
REMARK  188  A    between atoms: _472  and  _475
REMARK  189  A    between atoms: _475  and  _476
REMARK  190  A    between atoms: _476  and  _477
REMARK  191  A    between atoms: _477  and  _478
REMARK  192  A    between atoms: _478  and  _479
REMARK  193  A    between atoms: _483  and  _485
REMARK  194  A    between atoms: _485  and  _486
REMARK  195  A    between atoms: _485  and  _488
REMARK  196  A    between atoms: _488  and  _489
REMARK  197  A    between atoms: _492  and  _494
REMARK  198  A    between atoms: _494  and  _495
REMARK  199  A    between atoms: _494  and  _497
REMARK  200  A    between atoms: _500  and  _502
REMARK  201  A    between atoms: _502  and  _503
REMARK  202  A    between atoms: _502  and  _505
REMARK  203  A    between atoms: _505  and  _506
REMARK  204  A    between atoms: _509  and  _511
REMARK  205  A    between atoms: _511  and  _512
REMARK  206  A    between atoms: _511  and  _514
REMARK  207  A    between atoms: _514  and  _515
REMARK  208  A    between atoms: _517  and  _519
REMARK  209  A    between atoms: _519  and  _520
REMARK  210  A    between atoms: _522  and  _524
REMARK  211  A    between atoms: _524  and  _525
REMARK  212  A    between atoms: _524  and  _527
REMARK  213  A    between atoms: _527  and  _528
REMARK  214  A    between atoms: _531  and  _533
REMARK  215  A    between atoms: _533  and  _534
REMARK  216  A    between atoms: _533  and  _536
REMARK  217  A    between atoms: _536  and  _537
REMARK  218  A    between atoms: _540  and  _542
REMARK  219  A    between atoms: _542  and  _543
REMARK  220  A    between atoms: _542  and  _545
REMARK  221  A    between atoms: _545  and  _546
REMARK  222  A    between atoms: _551  and  _553
REMARK  223  A    between atoms: _553  and  _554
REMARK  224  A    between atoms: _553  and  _556
REMARK  225  A    between atoms: _556  and  _557
REMARK  226  A    between atoms: _560  and  _562
REMARK  227  A    between atoms: _562  and  _563
REMARK  228  A    between atoms: _562  and  _565
REMARK  229  A    between atoms: _565  and  _566
REMARK  230  A    between atoms: _566  and  _567
REMARK  231  A    between atoms: _567  and  _568
REMARK  232  A    between atoms: _577  and  _579
REMARK  233  A    between atoms: _579  and  _580
REMARK  234  A    between atoms: _579  and  _582
REMARK  235  A    between atoms: _582  and  _583
REMARK  236  A    between atoms: _586  and  _588
REMARK  237  A    between atoms: _588  and  _589
REMARK  238  A    between atoms: _588  and  _591
REMARK  239  A    between atoms: _591  and  _592
REMARK  240  A    between atoms: _595  and  _597
REMARK  241  A    between atoms: _597  and  _598
REMARK  242  A    between atoms: _600  and  _602
REMARK  243  A    between atoms: _602  and  _603
REMARK  244  A    between atoms: _602  and  _605
REMARK  245  A    between atoms: _605  and  _606
REMARK  246  A    between atoms: _606  and  _607
REMARK  247  A    between atoms: _607  and  _608
REMARK  248  A    between atoms: _617  and  _619
REMARK  249  A    between atoms: _619  and  _620
REMARK  250  A    between atoms: _619  and  _622
REMARK  251  A    between atoms: _622  and  _623
REMARK  252  A    between atoms: _629  and  _631
REMARK  253  A    between atoms: _631  and  _632
REMARK  254  A    between atoms: _635  and  _637
REMARK  255  A    between atoms: _637  and  _638
REMARK  256  A    between atoms: _637  and  _640
REMARK  257  A    between atoms: _640  and  _641
REMARK  258  A    between atoms: _644  and  _646
REMARK  259  A    between atoms: _646  and  _647
REMARK  260  A    between atoms: _646  and  _649
REMARK  261  A    between atoms: _649  and  _650
REMARK  262  A    between atoms: _652  and  _654
REMARK  263  A    between atoms: _654  and  _655
REMARK  264  A    between atoms: _654  and  _657
REMARK  265  A    between atoms: _657  and  _658
REMARK  266  A    between atoms: _658  and  _659
REMARK  267  A    between atoms: _664  and  _666
REMARK  268  A    between atoms: _666  and  _667
REMARK  269  A    between atoms: _666  and  _669
REMARK  270  A    between atoms: _669  and  _670
REMARK  271  A    between atoms: _672  and  _674
REMARK  272  A    between atoms: _674  and  _675
REMARK  273  A    between atoms: _674  and  _677
REMARK  274  A    between atoms: _677  and  _678
REMARK  275  A    between atoms: _680  and  _682
REMARK  276  A    between atoms: _682  and  _683
REMARK  277  A    between atoms: _682  and  _685
REMARK  278  A    between atoms: _685  and  _686
REMARK  279  A    between atoms: _689  and  _691
REMARK  280  A    between atoms: _691  and  _692
REMARK  281  A    between atoms: _691  and  _694
REMARK  282  A    between atoms: _697  and  _699
REMARK  283  A    between atoms: _699  and  _700
REMARK  284  A    between atoms: _702  and  _704
REMARK  285  A    between atoms: _704  and  _705
REMARK  286  A    between atoms: _708  and  _710
REMARK  287  A    between atoms: _710  and  _711
REMARK  288  A    between atoms: _710  and  _713
REMARK  289  A    between atoms: _716  and  _718
REMARK  290  A    between atoms: _718  and  _719
REMARK  291  A    between atoms: _718  and  _721
REMARK  292  A    between atoms: _721  and  _722
REMARK  293  A    between atoms: _722  and  _723
REMARK  294  A    between atoms: _725  and  _727
REMARK  295  A    between atoms: _727  and  _728
REMARK  296  A    between atoms: _727  and  _730
REMARK  297  A    between atoms: _730  and  _731
REMARK  298  A    between atoms: _731  and  _732
REMARK                            x       y       z     vdW  Elec       q    Type
REMARK                         _______ _______ _______ _____ _____    ______ ____
ROOT
ATOM      1  CA  GLN A   5      -4.393  -5.563  26.658  0.00  0.00    +0.149 C 
ENDROOT
BRANCH   1   2
ATOM      2  C   GLN A   5      -4.917  -6.843  27.268  0.00  0.00    +0.241 C 
ATOM      3  O   GLN A   5      -5.009  -6.953  28.487  0.00  0.00    -0.273 OA
ATOM      4  N   GLY A   6      -5.279  -7.798  26.417  0.00  0.00    -0.295 N 
ATOM      5  H   GLY A   6      -5.220  -7.618  25.394  0.00  0.00    +0.150 HD
BRANCH   4   6
ATOM      6  CA  GLY A   6      -5.756  -9.091  26.886  0.00  0.00    +0.176 C 
BRANCH   6   7
ATOM      7  C   GLY A   6      -7.188  -9.144  27.392  0.00  0.00    +0.243 C 
ATOM      8  O   GLY A   6      -7.817  -8.120  27.628  0.00  0.00    -0.273 OA
ATOM      9  N   LYS A   7      -7.699 -10.360  27.552  0.00  0.00    -0.297 N 
ATOM     10  H   LYS A   7      -7.118 -11.187  27.308  0.00  0.00    +0.150 HD
BRANCH   9  11
ATOM     11  CA  LYS A   7      -9.046 -10.570  28.058  0.00  0.00    +0.149 C 
BRANCH  11  12
ATOM     12  C   LYS A   7      -9.196 -12.008  28.519  0.00  0.00    +0.241 C 
ATOM     13  N   TRP A   8     -10.153 -12.222  29.410  0.00  0.00    -0.298 N 
ATOM     14  H   TRP A   8     -10.717 -11.423  29.763  0.00  0.00    +0.150 HD
ATOM     15  O   LYS A   7      -8.436 -12.907  28.104  0.00  0.00    -0.273 OA
BRANCH  13  16
ATOM     16  CA  TRP A   8     -10.420 -13.565  29.897  0.00  0.00    +0.141 C 
BRANCH  16  17
ATOM     17  C   TRP A   8     -11.886 -13.755  30.228  0.00  0.00    +0.227 C 
ATOM     18  O   TRP A   8     -12.637 -12.790  30.352  0.00  0.00    -0.286 OA
ENDBRANCH  16  17
BRANCH  16  19
ATOM     19  CB  TRP A   8      -9.556 -13.921  31.126  0.00  0.00    +0.056 C 
BRANCH  19  20
ATOM     20  CG  TRP A   8      -9.622 -12.969  32.292  0.00  0.00    -0.002 A 
ATOM     21  CD2 TRP A   8     -10.692 -12.827  33.244  0.00  0.00    +0.013 A 
ATOM     22  CE2 TRP A   8     -10.319 -11.796  34.134  0.00  0.00    +0.056 A 
ATOM     23  CZ2 TRP A   8     -11.134 -11.385  35.196  0.00  0.00    +0.017 A 
ATOM     24  CH2 TRP A   8     -12.336 -12.027  35.356  0.00  0.00    +0.001 A 
ATOM     25  CZ3 TRP A   8     -12.735 -13.063  34.483  0.00  0.00    +0.000 A 
ATOM     26  NE1 TRP A   8      -9.084 -11.347  33.743  0.00  0.00    -0.352 N 
ATOM     27  HE1 TRP A   8      -8.544 -10.590  34.209  0.00  0.00    +0.166 HD
ATOM     28  CE3 TRP A   8     -11.925 -13.467  33.427  0.00  0.00    +0.001 A 
ATOM     29  CD1 TRP A   8      -8.674 -12.049  32.647  0.00  0.00    +0.068 A 
ENDBRANCH  19  20
ENDBRANCH  16  19
ENDBRANCH  13  16
ENDBRANCH  11  12
BRANCH  11  30
ATOM     30  CB  LYS A   7     -10.089 -10.259  26.980  0.00  0.00    +0.029 C 
BRANCH  30  31
ATOM     31  CG  LYS A   7     -10.003 -11.154  25.762  0.00  0.00    +0.000 C 
BRANCH  31  32
ATOM     32  CD  LYS A   7     -10.816 -10.597  24.601  0.00  0.00    -0.024 C 
BRANCH  32  33
ATOM     33  CE  LYS A   7     -10.646 -11.471  23.362  0.00  0.00    -0.086 C 
BRANCH  33  34
ATOM     34  NZ  LYS A   7     -11.277 -10.893  22.138  0.00  0.00    +0.380 N 
ATOM     35  HZ1 LYS A   7     -12.297 -10.773  22.299  0.00  0.00    -0.089 HD
ATOM     36  HZ2 LYS A   7     -10.847  -9.969  21.931  0.00  0.00    -0.089 HD
ATOM     37  HZ3 LYS A   7     -11.125 -11.536  21.335  0.00  0.00    -0.089 HD
ENDBRANCH  33  34
ENDBRANCH  32  33
ENDBRANCH  31  32
ENDBRANCH  30  31
ENDBRANCH  11  30
ENDBRANCH   9  11
ENDBRANCH   6   7
ENDBRANCH   4   6
ENDBRANCH   1   2
BRANCH   1  39
ATOM     38  C   THR A   4      -5.951  -3.724  26.347  0.00  0.00    +0.243 C 
ATOM     39  N   GLN A   5      -5.213  -4.469  27.165  0.00  0.00    -0.297 N 
ATOM     40  H   GLN A   5      -5.221  -4.268  28.185  0.00  0.00    +0.150 HD
ATOM     41  O   THR A   4      -5.949  -3.876  25.130  0.00  0.00    -0.273 OA
BRANCH  38  42
ATOM     42  CA  THR A   4      -6.820  -2.657  27.011  0.00  0.00    +0.176 C 
BRANCH  42  44
ATOM     43  C   TYR A   3      -8.179  -4.349  28.061  0.00  0.00    +0.241 C 
ATOM     44  N   THR A   4      -7.382  -3.296  28.197  0.00  0.00    -0.295 N 
ATOM     45  H   THR A   4      -7.159  -2.928  29.144  0.00  0.00    +0.150 HD
ATOM     46  O   TYR A   3      -8.509  -4.785  26.962  0.00  0.00    -0.273 OA
BRANCH  43  47
ATOM     47  CA  TYR A   3      -8.676  -5.022  29.335  0.00  0.00    +0.153 C 
BRANCH  47  50
ATOM     48  C   PRO A   2     -10.843  -6.096  28.955  0.00  0.00    +0.241 C 
ATOM     49  O   PRO A   2     -11.453  -5.117  29.406  0.00  0.00    -0.273 OA
ATOM     50  N   TYR A   3      -9.517  -6.151  28.901  0.00  0.00    -0.297 N 
ATOM     51  H   TYR A   3      -9.060  -7.014  28.543  0.00  0.00    +0.150 HD
BRANCH  48  58
ATOM     52  C   VAL A   1     -12.262  -8.862  30.251  0.00  0.00    +0.241 C 
ATOM     53  O   VAL A   1     -11.247  -9.542  30.086  0.00  0.00    -0.273 OA
ATOM     54  N   PRO A   2     -12.531  -7.786  29.495  0.00  0.00    -0.272 N 
ATOM     55  CD  PRO A   2     -13.875  -7.202  29.300  0.00  0.00    +0.094 C 
ATOM     56  CG  PRO A   2     -13.694  -6.294  28.082  0.00  0.00    +0.024 C 
ATOM     57  CB  PRO A   2     -12.566  -6.979  27.314  0.00  0.00    +0.031 C 
ATOM     58  CA  PRO A   2     -11.615  -7.328  28.449  0.00  0.00    +0.152 C 
BRANCH  52  59
ATOM     59  CA  VAL A   1     -13.291  -9.227  31.319  0.00  0.00    +0.145 C 
BRANCH  59  60
ATOM     60  CB  VAL A   1     -12.569  -9.277  32.692  0.00  0.00    +0.025 C 
ATOM     61  CG2 VAL A   1     -13.604  -9.310  33.809  0.00  0.00    +0.002 C 
ATOM     62  CG1 VAL A   1     -11.653  -8.051  32.857  0.00  0.00    +0.002 C 
ENDBRANCH  59  60
BRANCH  59  63
ATOM     63  N   VAL A   1     -14.048 -10.452  31.087  0.00  0.00    -0.238 NA
ATOM     64  H   VAL A   1     -13.553 -11.320  30.798  0.00  0.00    +0.142 HD
ENDBRANCH  59  63
ENDBRANCH  52  59
ENDBRANCH  48  58
ENDBRANCH  47  50
BRANCH  47  65
ATOM     65  CB  TYR A   3      -7.451  -5.527  30.103  0.00  0.00    +0.055 C 
BRANCH  65  66
ATOM     66  CG  TYR A   3      -7.758  -6.355  31.333  0.00  0.00    -0.020 A 
ATOM     67  CD2 TYR A   3      -8.115  -5.756  32.543  0.00  0.00    -0.001 A 
ATOM     68  CE2 TYR A   3      -8.380  -6.525  33.677  0.00  0.00    +0.036 A 
ATOM     69  CZ  TYR A   3      -8.293  -7.905  33.602  0.00  0.00    +0.134 A 
ATOM     70  CE1 TYR A   3      -7.946  -8.512  32.418  0.00  0.00    +0.036 A 
ATOM     71  CD1 TYR A   3      -7.679  -7.735  31.289  0.00  0.00    -0.001 A 
BRANCH  69  72
ATOM     72  OH  TYR A   3      -8.542  -8.702  34.696  0.00  0.00    -0.506 OA
ATOM     73  HH  TYR A   3      -8.778  -8.133  35.471  0.00  0.00    +0.292 HD
ENDBRANCH  69  72
ENDBRANCH  65  66
ENDBRANCH  47  65
ENDBRANCH  43  47
ENDBRANCH  42  44
BRANCH  42  74
ATOM     74  CB  THR A   4      -5.958  -1.455  27.393  0.00  0.00    +0.137 C 
ATOM     75  CG2 THR A   4      -5.361  -0.786  26.146  0.00  0.00    +0.034 C 
BRANCH  74  76
ATOM     76  OG1 THR A   4      -6.781  -0.525  28.097  0.00  0.00    -0.382 OA
ATOM     77  HG1 THR A   4      -6.240   0.263  28.354  0.00  0.00    +0.210 HD
ENDBRANCH  74  76
ENDBRANCH  42  74
ENDBRANCH  38  42
ENDBRANCH   1  39
BRANCH   1  78
ATOM     78  CB  GLN A   5      -2.926  -5.401  27.056  0.00  0.00    +0.039 C 
BRANCH  78  79
ATOM     79  CG  GLN A   5      -2.022  -6.560  26.609  0.00  0.00    +0.087 C 
BRANCH  79  80
ATOM     80  CD  GLN A   5      -0.567  -6.348  27.020  0.00  0.00    +0.219 C 
ATOM     81  OE1 GLN A   5      -0.022  -7.073  27.864  0.00  0.00    -0.275 OA
ATOM     82  NE2 GLN A   5       0.058  -5.340  26.437  0.00  0.00    -0.329 N 
ATOM     83 HE21 GLN A   5       1.047  -5.130  26.682  0.00  0.00    +0.145 HD
ATOM     84 HE22 GLN A   5      -0.439  -4.757  25.733  0.00  0.00    +0.145 HD
ENDBRANCH  79  80
ENDBRANCH  78  79
ENDBRANCH   1  78
TORSDOF 31
REMARK  Name = ../refined-set-2016/2vkm/2vkm_pocket.pdb
REMARK  298 active torsions:
REMARK  status: ('A' for Active; 'I' for Inactive)
REMARK    1  A    between atoms: _1  and  _3
REMARK    2  A    between atoms: _3  and  _4
REMARK    3  A    between atoms: _6  and  _8
REMARK    4  A    between atoms: _8  and  _9
REMARK    5  A    between atoms: _8  and  _11
REMARK    6  A    between atoms: _11  and  _12
REMARK    7  A    between atoms: _12  and  _13
REMARK    8  A    between atoms: _13  and  _14
REMARK    9  A    between atoms: _14  and  _15
REMARK   10  A    between atoms: _19  and  _21
REMARK   11  A    between atoms: _21  and  _22
REMARK   12  A    between atoms: _21  and  _24
REMARK   13  A    between atoms: _24  and  _25
REMARK   14  A    between atoms: _27  and  _29
REMARK   15  A    between atoms: _29  and  _30
REMARK   16  A    between atoms: _32  and  _34
REMARK   17  A    between atoms: _34  and  _35
REMARK   18  A    between atoms: _34  and  _37
REMARK   19  A    between atoms: _37  and  _38
REMARK   20  A    between atoms: _38  and  _39
REMARK   21  A    between atoms: _44  and  _46
REMARK   22  A    between atoms: _46  and  _47
REMARK   23  A    between atoms: _49  and  _51
REMARK   24  A    between atoms: _51  and  _52
REMARK   25  A    between atoms: _51  and  _54
REMARK   26  A    between atoms: _54  and  _55
REMARK   27  A    between atoms: _60  and  _61
REMARK   28  A    between atoms: _63  and  _65
REMARK   29  A    between atoms: _65  and  _66
REMARK   30  A    between atoms: _65  and  _68
REMARK   31  A    between atoms: _68  and  _69
REMARK   32  A    between atoms: _74  and  _75
REMARK   33  A    between atoms: _77  and  _79
REMARK   34  A    between atoms: _79  and  _80
REMARK   35  A    between atoms: _79  and  _82
REMARK   36  A    between atoms: _82  and  _83
REMARK   37  A    between atoms: _86  and  _88
REMARK   38  A    between atoms: _88  and  _89
REMARK   39  A    between atoms: _88  and  _91
REMARK   40  A    between atoms: _94  and  _96
REMARK   41  A    between atoms: _96  and  _97
REMARK   42  A    between atoms: _96  and  _99
REMARK   43  A    between atoms: _99  and  _100
REMARK   44  A    between atoms: _103  and  _105
REMARK   45  A    between atoms: _105  and  _106
REMARK   46  A    between atoms: _105  and  _108
REMARK   47  A    between atoms: _108  and  _109
REMARK   48  A    between atoms: _112  and  _114
REMARK   49  A    between atoms: _114  and  _115
REMARK   50  A    between atoms: _117  and  _119
REMARK   51  A    between atoms: _119  and  _120
REMARK   52  A    between atoms: _119  and  _122
REMARK   53  A    between atoms: _122  and  _123
REMARK   54  A    between atoms: _125  and  _127
REMARK   55  A    between atoms: _127  and  _128
REMARK   56  A    between atoms: _127  and  _130
REMARK   57  A    between atoms: _130  and  _131
REMARK   58  A    between atoms: _133  and  _135
REMARK   59  A    between atoms: _135  and  _136
REMARK   60  A    between atoms: _135  and  _138
REMARK   61  A    between atoms: _138  and  _139
REMARK   62  A    between atoms: _144  and  _146
REMARK   63  A    between atoms: _146  and  _147
REMARK   64  A    between atoms: _146  and  _149
REMARK   65  A    between atoms: _153  and  _154
REMARK   66  A    between atoms: _159  and  _161
REMARK   67  A    between atoms: _161  and  _162
REMARK   68  A    between atoms: _161  and  _164
REMARK   69  A    between atoms: _164  and  _165
REMARK   70  A    between atoms: _170  and  _171
REMARK   71  A    between atoms: _173  and  _175
REMARK   72  A    between atoms: _175  and  _176
REMARK   73  A    between atoms: _175  and  _178
REMARK   74  A    between atoms: _178  and  _179
REMARK   75  A    between atoms: _182  and  _184
REMARK   76  A    between atoms: _184  and  _185
REMARK   77  A    between atoms: _184  and  _187
REMARK   78  A    between atoms: _187  and  _188
REMARK   79  A    between atoms: _188  and  _189
REMARK   80  A    between atoms: _194  and  _196
REMARK   81  A    between atoms: _196  and  _197
REMARK   82  A    between atoms: _199  and  _201
REMARK   83  A    between atoms: _201  and  _202
REMARK   84  A    between atoms: _201  and  _204
REMARK   85  A    between atoms: _204  and  _205
REMARK   86  A    between atoms: _205  and  _206
REMARK   87  A    between atoms: _206  and  _207
REMARK   88  A    between atoms: _207  and  _208
REMARK   89  A    between atoms: _212  and  _214
REMARK   90  A    between atoms: _214  and  _215
REMARK   91  A    between atoms: _214  and  _217
REMARK   92  A    between atoms: _217  and  _218
REMARK   93  A    between atoms: _228  and  _230
REMARK   94  A    between atoms: _230  and  _231
REMARK   95  A    between atoms: _230  and  _233
REMARK   96  A    between atoms: _233  and  _234
REMARK   97  A    between atoms: _237  and  _239
REMARK   98  A    between atoms: _239  and  _240
REMARK   99  A    between atoms: _239  and  _242
REMARK  100  A    between atoms: _242  and  _243
REMARK  101  A    between atoms: _243  and  _244
REMARK  102  A    between atoms: _244  and  _245
REMARK  103  A    between atoms: _245  and  _246
REMARK  104  A    between atoms: _250  and  _252
REMARK  105  A    between atoms: _252  and  _253
REMARK  106  A    between atoms: _252  and  _255
REMARK  107  A    between atoms: _255  and  _256
REMARK  108  A    between atoms: _262  and  _264
REMARK  109  A    between atoms: _264  and  _265
REMARK  110  A    between atoms: _264  and  _267
REMARK  111  A    between atoms: _267  and  _268
REMARK  112  A    between atoms: _274  and  _276
REMARK  113  A    between atoms: _276  and  _277
REMARK  114  A    between atoms: _276  and  _279
REMARK  115  A    between atoms: _279  and  _280
REMARK  116  A    between atoms: _283  and  _285
REMARK  117  A    between atoms: _285  and  _286
REMARK  118  A    between atoms: _285  and  _288
REMARK  119  A    between atoms: _288  and  _289
REMARK  120  A    between atoms: _291  and  _293
REMARK  121  A    between atoms: _293  and  _294
REMARK  122  A    between atoms: _293  and  _296
REMARK  123  A    between atoms: _296  and  _297
REMARK  124  A    between atoms: _307  and  _309
REMARK  125  A    between atoms: _309  and  _310
REMARK  126  A    between atoms: _312  and  _314
REMARK  127  A    between atoms: _314  and  _315
REMARK  128  A    between atoms: _314  and  _317
REMARK  129  A    between atoms: _317  and  _318
REMARK  130  A    between atoms: _321  and  _323
REMARK  131  A    between atoms: _323  and  _324
REMARK  132  A    between atoms: _323  and  _326
REMARK  133  A    between atoms: _326  and  _327
REMARK  134  A    between atoms: _330  and  _332
REMARK  135  A    between atoms: _332  and  _333
REMARK  136  A    between atoms: _335  and  _337
REMARK  137  A    between atoms: _337  and  _338
REMARK  138  A    between atoms: _337  and  _340
REMARK  139  A    between atoms: _340  and  _341
REMARK  140  A    between atoms: _344  and  _346
REMARK  141  A    between atoms: _346  and  _347
REMARK  142  A    between atoms: _350  and  _352
REMARK  143  A    between atoms: _352  and  _353
REMARK  144  A    between atoms: _352  and  _355
REMARK  145  A    between atoms: _355  and  _356
REMARK  146  A    between atoms: _361  and  _362
REMARK  147  A    between atoms: _364  and  _366
REMARK  148  A    between atoms: _366  and  _367
REMARK  149  A    between atoms: _370  and  _372
REMARK  150  A    between atoms: _372  and  _373
REMARK  151  A    between atoms: _372  and  _375
REMARK  152  A    between atoms: _375  and  _376
REMARK  153  A    between atoms: _376  and  _377
REMARK  154  A    between atoms: _380  and  _382
REMARK  155  A    between atoms: _382  and  _383
REMARK  156  A    between atoms: _382  and  _385
REMARK  157  A    between atoms: _385  and  _386
REMARK  158  A    between atoms: _389  and  _391
REMARK  159  A    between atoms: _391  and  _392
REMARK  160  A    between atoms: _395  and  _397
REMARK  161  A    between atoms: _397  and  _398
REMARK  162  A    between atoms: _397  and  _400
REMARK  163  A    between atoms: _400  and  _401
REMARK  164  A    between atoms: _401  and  _402
REMARK  165  A    between atoms: _402  and  _403
REMARK  166  A    between atoms: _412  and  _414
REMARK  167  A    between atoms: _414  and  _415
REMARK  168  A    between atoms: _414  and  _417
REMARK  169  A    between atoms: _417  and  _418
REMARK  170  A    between atoms: _421  and  _423
REMARK  171  A    between atoms: _423  and  _424
REMARK  172  A    between atoms: _426  and  _428
REMARK  173  A    between atoms: _428  and  _429
REMARK  174  A    between atoms: _428  and  _431
REMARK  175  A    between atoms: _431  and  _432
REMARK  176  A    between atoms: _442  and  _444
REMARK  177  A    between atoms: _444  and  _445
REMARK  178  A    between atoms: _444  and  _447
REMARK  179  A    between atoms: _447  and  _448
REMARK  180  A    between atoms: _453  and  _454
REMARK  181  A    between atoms: _456  and  _458
REMARK  182  A    between atoms: _458  and  _459
REMARK  183  A    between atoms: _458  and  _461
REMARK  184  A    between atoms: _461  and  _462
REMARK  185  A    between atoms: _467  and  _468
REMARK  186  A    between atoms: _470  and  _472
REMARK  187  A    between atoms: _472  and  _473
REMARK  188  A    between atoms: _472  and  _475
REMARK  189  A    between atoms: _475  and  _476
REMARK  190  A    between atoms: _476  and  _477
REMARK  191  A    between atoms: _477  and  _478
REMARK  192  A    between atoms: _478  and  _479
REMARK  193  A    between atoms: _483  and  _485
REMARK  194  A    between atoms: _485  and  _486
REMARK  195  A    between atoms: _485  and  _488
REMARK  196  A    between atoms: _488  and  _489
REMARK  197  A    between atoms: _492  and  _494
REMARK  198  A    between atoms: _494  and  _495
REMARK  199  A    between atoms: _494  and  _497
REMARK  200  A    between atoms: _500  and  _502
REMARK  201  A    between atoms: _502  and  _503
REMARK  202  A    between atoms: _502  and  _505
REMARK  203  A    between atoms: _505  and  _506
REMARK  204  A    between atoms: _509  and  _511
REMARK  205  A    between atoms: _511  and  _512
REMARK  206  A    between atoms: _511  and  _514
REMARK  207  A    between atoms: _514  and  _515
REMARK  208  A    between atoms: _517  and  _519
REMARK  209  A    between atoms: _519  and  _520
REMARK  210  A    between atoms: _522  and  _524
REMARK  211  A    between atoms: _524  and  _525
REMARK  212  A    between atoms: _524  and  _527
REMARK  213  A    between atoms: _527  and  _528
REMARK  214  A    between atoms: _531  and  _533
REMARK  215  A    between atoms: _533  and  _534
REMARK  216  A    between atoms: _533  and  _536
REMARK  217  A    between atoms: _536  and  _537
REMARK  218  A    between atoms: _540  and  _542
REMARK  219  A    between atoms: _542  and  _543
REMARK  220  A    between atoms: _542  and  _545
REMARK  221  A    between atoms: _545  and  _546
REMARK  222  A    between atoms: _551  and  _553
REMARK  223  A    between atoms: _553  and  _554
REMARK  224  A    between atoms: _553  and  _556
REMARK  225  A    between atoms: _556  and  _557
REMARK  226  A    between atoms: _560  and  _562
REMARK  227  A    between atoms: _562  and  _563
REMARK  228  A    between atoms: _562  and  _565
REMARK  229  A    between atoms: _565  and  _566
REMARK  230  A    between atoms: _566  and  _567
REMARK  231  A    between atoms: _567  and  _568
REMARK  232  A    between atoms: _577  and  _579
REMARK  233  A    between atoms: _579  and  _580
REMARK  234  A    between atoms: _579  and  _582
REMARK  235  A    between atoms: _582  and  _583
REMARK  236  A    between atoms: _586  and  _588
REMARK  237  A    between atoms: _588  and  _589
REMARK  238  A    between atoms: _588  and  _591
REMARK  239  A    between atoms: _591  and  _592
REMARK  240  A    between atoms: _595  and  _597
REMARK  241  A    between atoms: _597  and  _598
REMARK  242  A    between atoms: _600  and  _602
REMARK  243  A    between atoms: _602  and  _603
REMARK  244  A    between atoms: _602  and  _605
REMARK  245  A    between atoms: _605  and  _606
REMARK  246  A    between atoms: _606  and  _607
REMARK  247  A    between atoms: _607  and  _608
REMARK  248  A    between atoms: _617  and  _619
REMARK  249  A    between atoms: _619  and  _620
REMARK  250  A    between atoms: _619  and  _622
REMARK  251  A    between atoms: _622  and  _623
REMARK  252  A    between atoms: _629  and  _631
REMARK  253  A    between atoms: _631  and  _632
REMARK  254  A    between atoms: _635  and  _637
REMARK  255  A    between atoms: _637  and  _638
REMARK  256  A    between atoms: _637  and  _640
REMARK  257  A    between atoms: _640  and  _641
REMARK  258  A    between atoms: _644  and  _646
REMARK  259  A    between atoms: _646  and  _647
REMARK  260  A    between atoms: _646  and  _649
REMARK  261  A    between atoms: _649  and  _650
REMARK  262  A    between atoms: _652  and  _654
REMARK  263  A    between atoms: _654  and  _655
REMARK  264  A    between atoms: _654  and  _657
REMARK  265  A    between atoms: _657  and  _658
REMARK  266  A    between atoms: _658  and  _659
REMARK  267  A    between atoms: _664  and  _666
REMARK  268  A    between atoms: _666  and  _667
REMARK  269  A    between atoms: _666  and  _669
REMARK  270  A    between atoms: _669  and  _670
REMARK  271  A    between atoms: _672  and  _674
REMARK  272  A    between atoms: _674  and  _675
REMARK  273  A    between atoms: _674  and  _677
REMARK  274  A    between atoms: _677  and  _678
REMARK  275  A    between atoms: _680  and  _682
REMARK  276  A    between atoms: _682  and  _683
REMARK  277  A    between atoms: _682  and  _685
REMARK  278  A    between atoms: _685  and  _686
REMARK  279  A    between atoms: _689  and  _691
REMARK  280  A    between atoms: _691  and  _692
REMARK  281  A    between atoms: _691  and  _694
REMARK  282  A    between atoms: _697  and  _699
REMARK  283  A    between atoms: _699  and  _700
REMARK  284  A    between atoms: _702  and  _704
REMARK  285  A    between atoms: _704  and  _705
REMARK  286  A    between atoms: _708  and  _710
REMARK  287  A    between atoms: _710  and  _711
REMARK  288  A    between atoms: _710  and  _713
REMARK  289  A    between atoms: _716  and  _718
REMARK  290  A    between atoms: _718  and  _719
REMARK  291  A    between atoms: _718  and  _721
REMARK  292  A    between atoms: _721  and  _722
REMARK  293  A    between atoms: _722  and  _723
REMARK  294  A    between atoms: _725  and  _727
REMARK  295  A    between atoms: _727  and  _728
REMARK  296  A    between atoms: _727  and  _730
REMARK  297  A    between atoms: _730  and  _731
REMARK  298  A    between atoms: _731  and  _732
REMARK                            x       y       z     vdW  Elec       q    Type
REMARK                         _______ _______ _______ _____ _____    ______ ____
ROOT
ATOM      1  CA  PHE A   3      -3.825 -12.141  29.152  0.00  0.00    +0.153 C 
ENDROOT
BRANCH   1   3
ATOM      2  C   LYS A   2      -3.319 -11.848  26.780  0.00  0.00    +0.241 C 
ATOM      3  N   PHE A   3      -3.802 -12.596  27.768  0.00  0.00    -0.297 N 
ATOM      4  H   PHE A   3      -4.177 -13.540  27.545  0.00  0.00    +0.150 HD
ATOM      5  O   LYS A   2      -2.874 -10.696  26.936  0.00  0.00    -0.273 OA
BRANCH   2   6
ATOM      6  CA  LYS A   2      -3.357 -12.497  25.402  0.00  0.00    +0.149 C 
BRANCH   6   9
ATOM      7  C   ASP A   1      -5.691 -13.234  25.454  0.00  0.00    +0.239 C 
ATOM      8  O   ASP A   1      -6.108 -12.117  25.758  0.00  0.00    -0.274 OA
ATOM      9  N   LYS A   2      -4.402 -13.517  25.282  0.00  0.00    -0.297 N 
ATOM     10  H   LYS A   2      -4.127 -14.494  25.055  0.00  0.00    +0.150 HD
BRANCH   7  11
ATOM     11  CA  ASP A   1      -6.654 -14.385  25.262  0.00  0.00    +0.156 C 
BRANCH  11  12
ATOM     12  N   ASP A   1      -7.276 -14.773  26.504  0.00  0.00    -0.238 NA
ATOM     13  H   ASP A   1      -7.554 -14.045  27.193  0.00  0.00    +0.142 HD
ENDBRANCH  11  12
BRANCH  11  14
ATOM     14  CB  ASP A   1      -7.750 -13.999  24.264  0.00  0.00    +0.140 C 
BRANCH  14  15
ATOM     15  CG  ASP A   1      -7.212 -13.722  22.873  0.00  0.00    +0.367 C 
ATOM     16  OD2 ASP A   1      -6.068 -14.136  22.574  0.00  0.00    -0.246 OA
ATOM     17  OD1 ASP A   1      -7.948 -13.104  22.070  0.00  0.00    -0.246 OA
ENDBRANCH  14  15
ENDBRANCH  11  14
ENDBRANCH   7  11
ENDBRANCH   6   9
BRANCH   6  18
ATOM     18  CB  LYS A   2      -3.551 -11.425  24.323  0.00  0.00    +0.029 C 
BRANCH  18  19
ATOM     19  CG  LYS A   2      -3.243 -11.932  22.933  0.00  0.00    +0.000 C 
BRANCH  19  20
ATOM     20  CD  LYS A   2      -3.666 -10.958  21.858  0.00  0.00    -0.024 C 
BRANCH  20  21
ATOM     21  CE  LYS A   2      -3.346 -11.547  20.499  0.00  0.00    -0.086 C 
BRANCH  21  22
ATOM     22  NZ  LYS A   2      -4.213 -11.000  19.410  0.00  0.00    +0.380 N 
ATOM     23  HZ1 LYS A   2      -5.209 -11.212  19.622  0.00  0.00    -0.089 HD
ATOM     24  HZ2 LYS A   2      -4.082  -9.970  19.349  0.00  0.00    -0.089 HD
ATOM     25  HZ3 LYS A   2      -3.949 -11.439  18.505  0.00  0.00    -0.089 HD
ENDBRANCH  21  22
ENDBRANCH  20  21
ENDBRANCH  19  20
ENDBRANCH  18  19
ENDBRANCH   6  18
ENDBRANCH   2   6
ENDBRANCH   1   3
BRANCH   1  26
ATOM     26  C   PHE A   3      -2.568 -12.674  29.827  0.00  0.00    +0.241 C 
ATOM     27  O   PHE A   3      -1.676 -11.901  30.180  0.00  0.00    -0.273 OA
ATOM     28  N   PHE A   4      -2.493 -13.993  30.007  0.00  0.00    -0.297 N 
ATOM     29  H   PHE A   4      -3.275 -14.602  29.691  0.00  0.00    +0.150 HD
BRANCH  28  30
ATOM     30  CA  PHE A   4      -1.325 -14.588  30.643  0.00  0.00    +0.153 C 
BRANCH  30  31
ATOM     31  C   PHE A   4      -0.042 -14.328  29.850  0.00  0.00    +0.241 C 
ATOM     32  N   ILE A   5       1.048 -14.120  30.582  0.00  0.00    -0.298 N 
ATOM     33  H   ILE A   5       0.975 -14.188  31.617  0.00  0.00    +0.150 HD
ATOM     34  O   PHE A   4      -0.040 -14.312  28.616  0.00  0.00    -0.273 OA
BRANCH  32  35
ATOM     35  CA  ILE A   5       2.341 -13.801  29.991  0.00  0.00    +0.137 C 
BRANCH  35  36
ATOM     36  CB  ILE A   5       2.817 -12.413  30.504  0.00  0.00    +0.026 C 
ATOM     37  CG2 ILE A   5       4.250 -12.114  30.035  0.00  0.00    +0.002 C 
BRANCH  36  38
ATOM     38  CG1 ILE A   5       1.837 -11.340  30.018  0.00  0.00    +0.002 C 
ATOM     39  CD1 ILE A   5       2.146  -9.913  30.516  0.00  0.00    +0.000 C 
ENDBRANCH  36  38
ENDBRANCH  35  36
BRANCH  35  40
ATOM     40  C   ILE A   5       3.408 -14.863  30.255  0.00  0.00    +0.227 C 
ATOM     41  O   ILE A   5       3.747 -15.180  31.397  0.00  0.00    -0.286 OA
ENDBRANCH  35  40
ENDBRANCH  32  35
ENDBRANCH  30  31
BRANCH  30  42
ATOM     42  CB  PHE A   4      -1.552 -16.083  30.868  0.00  0.00    +0.055 C 
BRANCH  42  43
ATOM     43  CG  PHE A   4      -2.608 -16.376  31.901  0.00  0.00    -0.020 A 
ATOM     44  CD2 PHE A   4      -2.551 -15.780  33.164  0.00  0.00    -0.004 A 
ATOM     45  CE2 PHE A   4      -3.550 -16.007  34.104  0.00  0.00    -0.000 A 
ATOM     46  CZ  PHE A   4      -4.617 -16.836  33.795  0.00  0.00    -0.000 A 
ATOM     47  CE1 PHE A   4      -4.681 -17.438  32.546  0.00  0.00    -0.000 A 
ATOM     48  CD1 PHE A   4      -3.678 -17.206  31.607  0.00  0.00    -0.004 A 
ENDBRANCH  42  43
ENDBRANCH  30  42
ENDBRANCH  28  30
ENDBRANCH   1  26
BRANCH   1  49
ATOM     49  CB  PHE A   3      -5.061 -12.672  29.888  0.00  0.00    +0.055 C 
BRANCH  49  50
ATOM     50  CG  PHE A   3      -5.124 -12.256  31.345  0.00  0.00    -0.020 A 
ATOM     51  CD2 PHE A   3      -5.136 -13.214  32.361  0.00  0.00    -0.004 A 
ATOM     52  CE2 PHE A   3      -5.128 -12.833  33.704  0.00  0.00    -0.000 A 
ATOM     53  CZ  PHE A   3      -5.110 -11.471  34.044  0.00  0.00    -0.000 A 
ATOM     54  CE1 PHE A   3      -5.103 -10.508  33.038  0.00  0.00    -0.000 A 
ATOM     55  CD1 PHE A   3      -5.111 -10.902  31.697  0.00  0.00    -0.004 A 
ENDBRANCH  49  50
ENDBRANCH   1  49
TORSDOF 23
REMARK  Name = ../refined-set-2016/2vkm/2vkm_pocket.pdb
REMARK  298 active torsions:
REMARK  status: ('A' for Active; 'I' for Inactive)
REMARK    1  A    between atoms: _1  and  _3
REMARK    2  A    between atoms: _3  and  _4
REMARK    3  A    between atoms: _6  and  _8
REMARK    4  A    between atoms: _8  and  _9
REMARK    5  A    between atoms: _8  and  _11
REMARK    6  A    between atoms: _11  and  _12
REMARK    7  A    between atoms: _12  and  _13
REMARK    8  A    between atoms: _13  and  _14
REMARK    9  A    between atoms: _14  and  _15
REMARK   10  A    between atoms: _19  and  _21
REMARK   11  A    between atoms: _21  and  _22
REMARK   12  A    between atoms: _21  and  _24
REMARK   13  A    between atoms: _24  and  _25
REMARK   14  A    between atoms: _27  and  _29
REMARK   15  A    between atoms: _29  and  _30
REMARK   16  A    between atoms: _32  and  _34
REMARK   17  A    between atoms: _34  and  _35
REMARK   18  A    between atoms: _34  and  _37
REMARK   19  A    between atoms: _37  and  _38
REMARK   20  A    between atoms: _38  and  _39
REMARK   21  A    between atoms: _44  and  _46
REMARK   22  A    between atoms: _46  and  _47
REMARK   23  A    between atoms: _49  and  _51
REMARK   24  A    between atoms: _51  and  _52
REMARK   25  A    between atoms: _51  and  _54
REMARK   26  A    between atoms: _54  and  _55
REMARK   27  A    between atoms: _60  and  _61
REMARK   28  A    between atoms: _63  and  _65
REMARK   29  A    between atoms: _65  and  _66
REMARK   30  A    between atoms: _65  and  _68
REMARK   31  A    between atoms: _68  and  _69
REMARK   32  A    between atoms: _74  and  _75
REMARK   33  A    between atoms: _77  and  _79
REMARK   34  A    between atoms: _79  and  _80
REMARK   35  A    between atoms: _79  and  _82
REMARK   36  A    between atoms: _82  and  _83
REMARK   37  A    between atoms: _86  and  _88
REMARK   38  A    between atoms: _88  and  _89
REMARK   39  A    between atoms: _88  and  _91
REMARK   40  A    between atoms: _94  and  _96
REMARK   41  A    between atoms: _96  and  _97
REMARK   42  A    between atoms: _96  and  _99
REMARK   43  A    between atoms: _99  and  _100
REMARK   44  A    between atoms: _103  and  _105
REMARK   45  A    between atoms: _105  and  _106
REMARK   46  A    between atoms: _105  and  _108
REMARK   47  A    between atoms: _108  and  _109
REMARK   48  A    between atoms: _112  and  _114
REMARK   49  A    between atoms: _114  and  _115
REMARK   50  A    between atoms: _117  and  _119
REMARK   51  A    between atoms: _119  and  _120
REMARK   52  A    between atoms: _119  and  _122
REMARK   53  A    between atoms: _122  and  _123
REMARK   54  A    between atoms: _125  and  _127
REMARK   55  A    between atoms: _127  and  _128
REMARK   56  A    between atoms: _127  and  _130
REMARK   57  A    between atoms: _130  and  _131
REMARK   58  A    between atoms: _133  and  _135
REMARK   59  A    between atoms: _135  and  _136
REMARK   60  A    between atoms: _135  and  _138
REMARK   61  A    between atoms: _138  and  _139
REMARK   62  A    between atoms: _144  and  _146
REMARK   63  A    between atoms: _146  and  _147
REMARK   64  A    between atoms: _146  and  _149
REMARK   65  A    between atoms: _153  and  _154
REMARK   66  A    between atoms: _159  and  _161
REMARK   67  A    between atoms: _161  and  _162
REMARK   68  A    between atoms: _161  and  _164
REMARK   69  A    between atoms: _164  and  _165
REMARK   70  A    between atoms: _170  and  _171
REMARK   71  A    between atoms: _173  and  _175
REMARK   72  A    between atoms: _175  and  _176
REMARK   73  A    between atoms: _175  and  _178
REMARK   74  A    between atoms: _178  and  _179
REMARK   75  A    between atoms: _182  and  _184
REMARK   76  A    between atoms: _184  and  _185
REMARK   77  A    between atoms: _184  and  _187
REMARK   78  A    between atoms: _187  and  _188
REMARK   79  A    between atoms: _188  and  _189
REMARK   80  A    between atoms: _194  and  _196
REMARK   81  A    between atoms: _196  and  _197
REMARK   82  A    between atoms: _199  and  _201
REMARK   83  A    between atoms: _201  and  _202
REMARK   84  A    between atoms: _201  and  _204
REMARK   85  A    between atoms: _204  and  _205
REMARK   86  A    between atoms: _205  and  _206
REMARK   87  A    between atoms: _206  and  _207
REMARK   88  A    between atoms: _207  and  _208
REMARK   89  A    between atoms: _212  and  _214
REMARK   90  A    between atoms: _214  and  _215
REMARK   91  A    between atoms: _214  and  _217
REMARK   92  A    between atoms: _217  and  _218
REMARK   93  A    between atoms: _228  and  _230
REMARK   94  A    between atoms: _230  and  _231
REMARK   95  A    between atoms: _230  and  _233
REMARK   96  A    between atoms: _233  and  _234
REMARK   97  A    between atoms: _237  and  _239
REMARK   98  A    between atoms: _239  and  _240
REMARK   99  A    between atoms: _239  and  _242
REMARK  100  A    between atoms: _242  and  _243
REMARK  101  A    between atoms: _243  and  _244
REMARK  102  A    between atoms: _244  and  _245
REMARK  103  A    between atoms: _245  and  _246
REMARK  104  A    between atoms: _250  and  _252
REMARK  105  A    between atoms: _252  and  _253
REMARK  106  A    between atoms: _252  and  _255
REMARK  107  A    between atoms: _255  and  _256
REMARK  108  A    between atoms: _262  and  _264
REMARK  109  A    between atoms: _264  and  _265
REMARK  110  A    between atoms: _264  and  _267
REMARK  111  A    between atoms: _267  and  _268
REMARK  112  A    between atoms: _274  and  _276
REMARK  113  A    between atoms: _276  and  _277
REMARK  114  A    between atoms: _276  and  _279
REMARK  115  A    between atoms: _279  and  _280
REMARK  116  A    between atoms: _283  and  _285
REMARK  117  A    between atoms: _285  and  _286
REMARK  118  A    between atoms: _285  and  _288
REMARK  119  A    between atoms: _288  and  _289
REMARK  120  A    between atoms: _291  and  _293
REMARK  121  A    between atoms: _293  and  _294
REMARK  122  A    between atoms: _293  and  _296
REMARK  123  A    between atoms: _296  and  _297
REMARK  124  A    between atoms: _307  and  _309
REMARK  125  A    between atoms: _309  and  _310
REMARK  126  A    between atoms: _312  and  _314
REMARK  127  A    between atoms: _314  and  _315
REMARK  128  A    between atoms: _314  and  _317
REMARK  129  A    between atoms: _317  and  _318
REMARK  130  A    between atoms: _321  and  _323
REMARK  131  A    between atoms: _323  and  _324
REMARK  132  A    between atoms: _323  and  _326
REMARK  133  A    between atoms: _326  and  _327
REMARK  134  A    between atoms: _330  and  _332
REMARK  135  A    between atoms: _332  and  _333
REMARK  136  A    between atoms: _335  and  _337
REMARK  137  A    between atoms: _337  and  _338
REMARK  138  A    between atoms: _337  and  _340
REMARK  139  A    between atoms: _340  and  _341
REMARK  140  A    between atoms: _344  and  _346
REMARK  141  A    between atoms: _346  and  _347
REMARK  142  A    between atoms: _350  and  _352
REMARK  143  A    between atoms: _352  and  _353
REMARK  144  A    between atoms: _352  and  _355
REMARK  145  A    between atoms: _355  and  _356
REMARK  146  A    between atoms: _361  and  _362
REMARK  147  A    between atoms: _364  and  _366
REMARK  148  A    between atoms: _366  and  _367
REMARK  149  A    between atoms: _370  and  _372
REMARK  150  A    between atoms: _372  and  _373
REMARK  151  A    between atoms: _372  and  _375
REMARK  152  A    between atoms: _375  and  _376
REMARK  153  A    between atoms: _376  and  _377
REMARK  154  A    between atoms: _380  and  _382
REMARK  155  A    between atoms: _382  and  _383
REMARK  156  A    between atoms: _382  and  _385
REMARK  157  A    between atoms: _385  and  _386
REMARK  158  A    between atoms: _389  and  _391
REMARK  159  A    between atoms: _391  and  _392
REMARK  160  A    between atoms: _395  and  _397
REMARK  161  A    between atoms: _397  and  _398
REMARK  162  A    between atoms: _397  and  _400
REMARK  163  A    between atoms: _400  and  _401
REMARK  164  A    between atoms: _401  and  _402
REMARK  165  A    between atoms: _402  and  _403
REMARK  166  A    between atoms: _412  and  _414
REMARK  167  A    between atoms: _414  and  _415
REMARK  168  A    between atoms: _414  and  _417
REMARK  169  A    between atoms: _417  and  _418
REMARK  170  A    between atoms: _421  and  _423
REMARK  171  A    between atoms: _423  and  _424
REMARK  172  A    between atoms: _426  and  _428
REMARK  173  A    between atoms: _428  and  _429
REMARK  174  A    between atoms: _428  and  _431
REMARK  175  A    between atoms: _431  and  _432
REMARK  176  A    between atoms: _442  and  _444
REMARK  177  A    between atoms: _444  and  _445
REMARK  178  A    between atoms: _444  and  _447
REMARK  179  A    between atoms: _447  and  _448
REMARK  180  A    between atoms: _453  and  _454
REMARK  181  A    between atoms: _456  and  _458
REMARK  182  A    between atoms: _458  and  _459
REMARK  183  A    between atoms: _458  and  _461
REMARK  184  A    between atoms: _461  and  _462
REMARK  185  A    between atoms: _467  and  _468
REMARK  186  A    between atoms: _470  and  _472
REMARK  187  A    between atoms: _472  and  _473
REMARK  188  A    between atoms: _472  and  _475
REMARK  189  A    between atoms: _475  and  _476
REMARK  190  A    between atoms: _476  and  _477
REMARK  191  A    between atoms: _477  and  _478
REMARK  192  A    between atoms: _478  and  _479
REMARK  193  A    between atoms: _483  and  _485
REMARK  194  A    between atoms: _485  and  _486
REMARK  195  A    between atoms: _485  and  _488
REMARK  196  A    between atoms: _488  and  _489
REMARK  197  A    between atoms: _492  and  _494
REMARK  198  A    between atoms: _494  and  _495
REMARK  199  A    between atoms: _494  and  _497
REMARK  200  A    between atoms: _500  and  _502
REMARK  201  A    between atoms: _502  and  _503
REMARK  202  A    between atoms: _502  and  _505
REMARK  203  A    between atoms: _505  and  _506
REMARK  204  A    between atoms: _509  and  _511
REMARK  205  A    between atoms: _511  and  _512
REMARK  206  A    between atoms: _511  and  _514
REMARK  207  A    between atoms: _514  and  _515
REMARK  208  A    between atoms: _517  and  _519
REMARK  209  A    between atoms: _519  and  _520
REMARK  210  A    between atoms: _522  and  _524
REMARK  211  A    between atoms: _524  and  _525
REMARK  212  A    between atoms: _524  and  _527
REMARK  213  A    between atoms: _527  and  _528
REMARK  214  A    between atoms: _531  and  _533
REMARK  215  A    between atoms: _533  and  _534
REMARK  216  A    between atoms: _533  and  _536
REMARK  217  A    between atoms: _536  and  _537
REMARK  218  A    between atoms: _540  and  _542
REMARK  219  A    between atoms: _542  and  _543
REMARK  220  A    between atoms: _542  and  _545
REMARK  221  A    between atoms: _545  and  _546
REMARK  222  A    between atoms: _551  and  _553
REMARK  223  A    between atoms: _553  and  _554
REMARK  224  A    between atoms: _553  and  _556
REMARK  225  A    between atoms: _556  and  _557
REMARK  226  A    between atoms: _560  and  _562
REMARK  227  A    between atoms: _562  and  _563
REMARK  228  A    between atoms: _562  and  _565
REMARK  229  A    between atoms: _565  and  _566
REMARK  230  A    between atoms: _566  and  _567
REMARK  231  A    between atoms: _567  and  _568
REMARK  232  A    between atoms: _577  and  _579
REMARK  233  A    between atoms: _579  and  _580
REMARK  234  A    between atoms: _579  and  _582
REMARK  235  A    between atoms: _582  and  _583
REMARK  236  A    between atoms: _586  and  _588
REMARK  237  A    between atoms: _588  and  _589
REMARK  238  A    between atoms: _588  and  _591
REMARK  239  A    between atoms: _591  and  _592
REMARK  240  A    between atoms: _595  and  _597
REMARK  241  A    between atoms: _597  and  _598
REMARK  242  A    between atoms: _600  and  _602
REMARK  243  A    between atoms: _602  and  _603
REMARK  244  A    between atoms: _602  and  _605
REMARK  245  A    between atoms: _605  and  _606
REMARK  246  A    between atoms: _606  and  _607
REMARK  247  A    between atoms: _607  and  _608
REMARK  248  A    between atoms: _617  and  _619
REMARK  249  A    between atoms: _619  and  _620
REMARK  250  A    between atoms: _619  and  _622
REMARK  251  A    between atoms: _622  and  _623
REMARK  252  A    between atoms: _629  and  _631
REMARK  253  A    between atoms: _631  and  _632
REMARK  254  A    between atoms: _635  and  _637
REMARK  255  A    between atoms: _637  and  _638
REMARK  256  A    between atoms: _637  and  _640
REMARK  257  A    between atoms: _640  and  _641
REMARK  258  A    between atoms: _644  and  _646
REMARK  259  A    between atoms: _646  and  _647
REMARK  260  A    between atoms: _646  and  _649
REMARK  261  A    between atoms: _649  and  _650
REMARK  262  A    between atoms: _652  and  _654
REMARK  263  A    between atoms: _654  and  _655
REMARK  264  A    between atoms: _654  and  _657
REMARK  265  A    between atoms: _657  and  _658
REMARK  266  A    between atoms: _658  and  _659
REMARK  267  A    between atoms: _664  and  _666
REMARK  268  A    between atoms: _666  and  _667
REMARK  269  A    between atoms: _666  and  _669
REMARK  270  A    between atoms: _669  and  _670
REMARK  271  A    between atoms: _672  and  _674
REMARK  272  A    between atoms: _674  and  _675
REMARK  273  A    between atoms: _674  and  _677
REMARK  274  A    between atoms: _677  and  _678
REMARK  275  A    between atoms: _680  and  _682
REMARK  276  A    between atoms: _682  and  _683
REMARK  277  A    between atoms: _682  and  _685
REMARK  278  A    between atoms: _685  and  _686
REMARK  279  A    between atoms: _689  and  _691
REMARK  280  A    between atoms: _691  and  _692
REMARK  281  A    between atoms: _691  and  _694
REMARK  282  A    between atoms: _697  and  _699
REMARK  283  A    between atoms: _699  and  _700
REMARK  284  A    between atoms: _702  and  _704
REMARK  285  A    between atoms: _704  and  _705
REMARK  286  A    between atoms: _708  and  _710
REMARK  287  A    between atoms: _710  and  _711
REMARK  288  A    between atoms: _710  and  _713
REMARK  289  A    between atoms: _716  and  _718
REMARK  290  A    between atoms: _718  and  _719
REMARK  291  A    between atoms: _718  and  _721
REMARK  292  A    between atoms: _721  and  _722
REMARK  293  A    between atoms: _722  and  _723
REMARK  294  A    between atoms: _725  and  _727
REMARK  295  A    between atoms: _727  and  _728
REMARK  296  A    between atoms: _727  and  _730
REMARK  297  A    between atoms: _730  and  _731
REMARK  298  A    between atoms: _731  and  _732
REMARK                            x       y       z     vdW  Elec       q    Type
REMARK                         _______ _______ _______ _____ _____    ______ ____
ROOT
ATOM      1  CA  SER A   1       5.809 -13.804  34.086  0.00  0.00    +0.163 C 
ENDROOT
BRANCH   1   2
ATOM      2  N   SER A   1       6.106 -14.866  33.133  0.00  0.00    -0.237 NA
ATOM      3  H   SER A   1       5.381 -15.142  32.441  0.00  0.00    +0.142 HD
ENDBRANCH   1   2
BRANCH   1   4
ATOM      4  C   SER A   1       5.798 -14.274  35.547  0.00  0.00    +0.227 C 
ATOM      5  O   SER A   1       6.065 -13.492  36.475  0.00  0.00    -0.287 OA
ENDBRANCH   1   4
BRANCH   1   6
ATOM      6  CB  SER A   1       4.456 -13.183  33.755  0.00  0.00    +0.162 C 
BRANCH   6   7
ATOM      7  OG  SER A   1       3.404 -14.027  34.178  0.00  0.00    -0.380 OA
ATOM      8  H   SER A   1       2.536 -13.607  33.955  0.00  0.00    +0.211 HD
ENDBRANCH   6   7
ENDBRANCH   1   6
TORSDOF 4
REMARK  Name = ../refined-set-2016/2vkm/2vkm_pocket.pdb
REMARK  298 active torsions:
REMARK  status: ('A' for Active; 'I' for Inactive)
REMARK    1  A    between atoms: _1  and  _3
REMARK    2  A    between atoms: _3  and  _4
REMARK    3  A    between atoms: _6  and  _8
REMARK    4  A    between atoms: _8  and  _9
REMARK    5  A    between atoms: _8  and  _11
REMARK    6  A    between atoms: _11  and  _12
REMARK    7  A    between atoms: _12  and  _13
REMARK    8  A    between atoms: _13  and  _14
REMARK    9  A    between atoms: _14  and  _15
REMARK   10  A    between atoms: _19  and  _21
REMARK   11  A    between atoms: _21  and  _22
REMARK   12  A    between atoms: _21  and  _24
REMARK   13  A    between atoms: _24  and  _25
REMARK   14  A    between atoms: _27  and  _29
REMARK   15  A    between atoms: _29  and  _30
REMARK   16  A    between atoms: _32  and  _34
REMARK   17  A    between atoms: _34  and  _35
REMARK   18  A    between atoms: _34  and  _37
REMARK   19  A    between atoms: _37  and  _38
REMARK   20  A    between atoms: _38  and  _39
REMARK   21  A    between atoms: _44  and  _46
REMARK   22  A    between atoms: _46  and  _47
REMARK   23  A    between atoms: _49  and  _51
REMARK   24  A    between atoms: _51  and  _52
REMARK   25  A    between atoms: _51  and  _54
REMARK   26  A    between atoms: _54  and  _55
REMARK   27  A    between atoms: _60  and  _61
REMARK   28  A    between atoms: _63  and  _65
REMARK   29  A    between atoms: _65  and  _66
REMARK   30  A    between atoms: _65  and  _68
REMARK   31  A    between atoms: _68  and  _69
REMARK   32  A    between atoms: _74  and  _75
REMARK   33  A    between atoms: _77  and  _79
REMARK   34  A    between atoms: _79  and  _80
REMARK   35  A    between atoms: _79  and  _82
REMARK   36  A    between atoms: _82  and  _83
REMARK   37  A    between atoms: _86  and  _88
REMARK   38  A    between atoms: _88  and  _89
REMARK   39  A    between atoms: _88  and  _91
REMARK   40  A    between atoms: _94  and  _96
REMARK   41  A    between atoms: _96  and  _97
REMARK   42  A    between atoms: _96  and  _99
REMARK   43  A    between atoms: _99  and  _100
REMARK   44  A    between atoms: _103  and  _105
REMARK   45  A    between atoms: _105  and  _106
REMARK   46  A    between atoms: _105  and  _108
REMARK   47  A    between atoms: _108  and  _109
REMARK   48  A    between atoms: _112  and  _114
REMARK   49  A    between atoms: _114  and  _115
REMARK   50  A    between atoms: _117  and  _119
REMARK   51  A    between atoms: _119  and  _120
REMARK   52  A    between atoms: _119  and  _122
REMARK   53  A    between atoms: _122  and  _123
REMARK   54  A    between atoms: _125  and  _127
REMARK   55  A    between atoms: _127  and  _128
REMARK   56  A    between atoms: _127  and  _130
REMARK   57  A    between atoms: _130  and  _131
REMARK   58  A    between atoms: _133  and  _135
REMARK   59  A    between atoms: _135  and  _136
REMARK   60  A    between atoms: _135  and  _138
REMARK   61  A    between atoms: _138  and  _139
REMARK   62  A    between atoms: _144  and  _146
REMARK   63  A    between atoms: _146  and  _147
REMARK   64  A    between atoms: _146  and  _149
REMARK   65  A    between atoms: _153  and  _154
REMARK   66  A    between atoms: _159  and  _161
REMARK   67  A    between atoms: _161  and  _162
REMARK   68  A    between atoms: _161  and  _164
REMARK   69  A    between atoms: _164  and  _165
REMARK   70  A    between atoms: _170  and  _171
REMARK   71  A    between atoms: _173  and  _175
REMARK   72  A    between atoms: _175  and  _176
REMARK   73  A    between atoms: _175  and  _178
REMARK   74  A    between atoms: _178  and  _179
REMARK   75  A    between atoms: _182  and  _184
REMARK   76  A    between atoms: _184  and  _185
REMARK   77  A    between atoms: _184  and  _187
REMARK   78  A    between atoms: _187  and  _188
REMARK   79  A    between atoms: _188  and  _189
REMARK   80  A    between atoms: _194  and  _196
REMARK   81  A    between atoms: _196  and  _197
REMARK   82  A    between atoms: _199  and  _201
REMARK   83  A    between atoms: _201  and  _202
REMARK   84  A    between atoms: _201  and  _204
REMARK   85  A    between atoms: _204  and  _205
REMARK   86  A    between atoms: _205  and  _206
REMARK   87  A    between atoms: _206  and  _207
REMARK   88  A    between atoms: _207  and  _208
REMARK   89  A    between atoms: _212  and  _214
REMARK   90  A    between atoms: _214  and  _215
REMARK   91  A    between atoms: _214  and  _217
REMARK   92  A    between atoms: _217  and  _218
REMARK   93  A    between atoms: _228  and  _230
REMARK   94  A    between atoms: _230  and  _231
REMARK   95  A    between atoms: _230  and  _233
REMARK   96  A    between atoms: _233  and  _234
REMARK   97  A    between atoms: _237  and  _239
REMARK   98  A    between atoms: _239  and  _240
REMARK   99  A    between atoms: _239  and  _242
REMARK  100  A    between atoms: _242  and  _243
REMARK  101  A    between atoms: _243  and  _244
REMARK  102  A    between atoms: _244  and  _245
REMARK  103  A    between atoms: _245  and  _246
REMARK  104  A    between atoms: _250  and  _252
REMARK  105  A    between atoms: _252  and  _253
REMARK  106  A    between atoms: _252  and  _255
REMARK  107  A    between atoms: _255  and  _256
REMARK  108  A    between atoms: _262  and  _264
REMARK  109  A    between atoms: _264  and  _265
REMARK  110  A    between atoms: _264  and  _267
REMARK  111  A    between atoms: _267  and  _268
REMARK  112  A    between atoms: _274  and  _276
REMARK  113  A    between atoms: _276  and  _277
REMARK  114  A    between atoms: _276  and  _279
REMARK  115  A    between atoms: _279  and  _280
REMARK  116  A    between atoms: _283  and  _285
REMARK  117  A    between atoms: _285  and  _286
REMARK  118  A    between atoms: _285  and  _288
REMARK  119  A    between atoms: _288  and  _289
REMARK  120  A    between atoms: _291  and  _293
REMARK  121  A    between atoms: _293  and  _294
REMARK  122  A    between atoms: _293  and  _296
REMARK  123  A    between atoms: _296  and  _297
REMARK  124  A    between atoms: _307  and  _309
REMARK  125  A    between atoms: _309  and  _310
REMARK  126  A    between atoms: _312  and  _314
REMARK  127  A    between atoms: _314  and  _315
REMARK  128  A    between atoms: _314  and  _317
REMARK  129  A    between atoms: _317  and  _318
REMARK  130  A    between atoms: _321  and  _323
REMARK  131  A    between atoms: _323  and  _324
REMARK  132  A    between atoms: _323  and  _326
REMARK  133  A    between atoms: _326  and  _327
REMARK  134  A    between atoms: _330  and  _332
REMARK  135  A    between atoms: _332  and  _333
REMARK  136  A    between atoms: _335  and  _337
REMARK  137  A    between atoms: _337  and  _338
REMARK  138  A    between atoms: _337  and  _340
REMARK  139  A    between atoms: _340  and  _341
REMARK  140  A    between atoms: _344  and  _346
REMARK  141  A    between atoms: _346  and  _347
REMARK  142  A    between atoms: _350  and  _352
REMARK  143  A    between atoms: _352  and  _353
REMARK  144  A    between atoms: _352  and  _355
REMARK  145  A    between atoms: _355  and  _356
REMARK  146  A    between atoms: _361  and  _362
REMARK  147  A    between atoms: _364  and  _366
REMARK  148  A    between atoms: _366  and  _367
REMARK  149  A    between atoms: _370  and  _372
REMARK  150  A    between atoms: _372  and  _373
REMARK  151  A    between atoms: _372  and  _375
REMARK  152  A    between atoms: _375  and  _376
REMARK  153  A    between atoms: _376  and  _377
REMARK  154  A    between atoms: _380  and  _382
REMARK  155  A    between atoms: _382  and  _383
REMARK  156  A    between atoms: _382  and  _385
REMARK  157  A    between atoms: _385  and  _386
REMARK  158  A    between atoms: _389  and  _391
REMARK  159  A    between atoms: _391  and  _392
REMARK  160  A    between atoms: _395  and  _397
REMARK  161  A    between atoms: _397  and  _398
REMARK  162  A    between atoms: _397  and  _400
REMARK  163  A    between atoms: _400  and  _401
REMARK  164  A    between atoms: _401  and  _402
REMARK  165  A    between atoms: _402  and  _403
REMARK  166  A    between atoms: _412  and  _414
REMARK  167  A    between atoms: _414  and  _415
REMARK  168  A    between atoms: _414  and  _417
REMARK  169  A    between atoms: _417  and  _418
REMARK  170  A    between atoms: _421  and  _423
REMARK  171  A    between atoms: _423  and  _424
REMARK  172  A    between atoms: _426  and  _428
REMARK  173  A    between atoms: _428  and  _429
REMARK  174  A    between atoms: _428  and  _431
REMARK  175  A    between atoms: _431  and  _432
REMARK  176  A    between atoms: _442  and  _444
REMARK  177  A    between atoms: _444  and  _445
REMARK  178  A    between atoms: _444  and  _447
REMARK  179  A    between atoms: _447  and  _448
REMARK  180  A    between atoms: _453  and  _454
REMARK  181  A    between atoms: _456  and  _458
REMARK  182  A    between atoms: _458  and  _459
REMARK  183  A    between atoms: _458  and  _461
REMARK  184  A    between atoms: _461  and  _462
REMARK  185  A    between atoms: _467  and  _468
REMARK  186  A    between atoms: _470  and  _472
REMARK  187  A    between atoms: _472  and  _473
REMARK  188  A    between atoms: _472  and  _475
REMARK  189  A    between atoms: _475  and  _476
REMARK  190  A    between atoms: _476  and  _477
REMARK  191  A    between atoms: _477  and  _478
REMARK  192  A    between atoms: _478  and  _479
REMARK  193  A    between atoms: _483  and  _485
REMARK  194  A    between atoms: _485  and  _486
REMARK  195  A    between atoms: _485  and  _488
REMARK  196  A    between atoms: _488  and  _489
REMARK  197  A    between atoms: _492  and  _494
REMARK  198  A    between atoms: _494  and  _495
REMARK  199  A    between atoms: _494  and  _497
REMARK  200  A    between atoms: _500  and  _502
REMARK  201  A    between atoms: _502  and  _503
REMARK  202  A    between atoms: _502  and  _505
REMARK  203  A    between atoms: _505  and  _506
REMARK  204  A    between atoms: _509  and  _511
REMARK  205  A    between atoms: _511  and  _512
REMARK  206  A    between atoms: _511  and  _514
REMARK  207  A    between atoms: _514  and  _515
REMARK  208  A    between atoms: _517  and  _519
REMARK  209  A    between atoms: _519  and  _520
REMARK  210  A    between atoms: _522  and  _524
REMARK  211  A    between atoms: _524  and  _525
REMARK  212  A    between atoms: _524  and  _527
REMARK  213  A    between atoms: _527  and  _528
REMARK  214  A    between atoms: _531  and  _533
REMARK  215  A    between atoms: _533  and  _534
REMARK  216  A    between atoms: _533  and  _536
REMARK  217  A    between atoms: _536  and  _537
REMARK  218  A    between atoms: _540  and  _542
REMARK  219  A    between atoms: _542  and  _543
REMARK  220  A    between atoms: _542  and  _545
REMARK  221  A    between atoms: _545  and  _546
REMARK  222  A    between atoms: _551  and  _553
REMARK  223  A    between atoms: _553  and  _554
REMARK  224  A    between atoms: _553  and  _556
REMARK  225  A    between atoms: _556  and  _557
REMARK  226  A    between atoms: _560  and  _562
REMARK  227  A    between atoms: _562  and  _563
REMARK  228  A    between atoms: _562  and  _565
REMARK  229  A    between atoms: _565  and  _566
REMARK  230  A    between atoms: _566  and  _567
REMARK  231  A    between atoms: _567  and  _568
REMARK  232  A    between atoms: _577  and  _579
REMARK  233  A    between atoms: _579  and  _580
REMARK  234  A    between atoms: _579  and  _582
REMARK  235  A    between atoms: _582  and  _583
REMARK  236  A    between atoms: _586  and  _588
REMARK  237  A    between atoms: _588  and  _589
REMARK  238  A    between atoms: _588  and  _591
REMARK  239  A    between atoms: _591  and  _592
REMARK  240  A    between atoms: _595  and  _597
REMARK  241  A    between atoms: _597  and  _598
REMARK  242  A    between atoms: _600  and  _602
REMARK  243  A    between atoms: _602  and  _603
REMARK  244  A    between atoms: _602  and  _605
REMARK  245  A    between atoms: _605  and  _606
REMARK  246  A    between atoms: _606  and  _607
REMARK  247  A    between atoms: _607  and  _608
REMARK  248  A    between atoms: _617  and  _619
REMARK  249  A    between atoms: _619  and  _620
REMARK  250  A    between atoms: _619  and  _622
REMARK  251  A    between atoms: _622  and  _623
REMARK  252  A    between atoms: _629  and  _631
REMARK  253  A    between atoms: _631  and  _632
REMARK  254  A    between atoms: _635  and  _637
REMARK  255  A    between atoms: _637  and  _638
REMARK  256  A    between atoms: _637  and  _640
REMARK  257  A    between atoms: _640  and  _641
REMARK  258  A    between atoms: _644  and  _646
REMARK  259  A    between atoms: _646  and  _647
REMARK  260  A    between atoms: _646  and  _649
REMARK  261  A    between atoms: _649  and  _650
REMARK  262  A    between atoms: _652  and  _654
REMARK  263  A    between atoms: _654  and  _655
REMARK  264  A    between atoms: _654  and  _657
REMARK  265  A    between atoms: _657  and  _658
REMARK  266  A    between atoms: _658  and  _659
REMARK  267  A    between atoms: _664  and  _666
REMARK  268  A    between atoms: _666  and  _667
REMARK  269  A    between atoms: _666  and  _669
REMARK  270  A    between atoms: _669  and  _670
REMARK  271  A    between atoms: _672  and  _674
REMARK  272  A    between atoms: _674  and  _675
REMARK  273  A    between atoms: _674  and  _677
REMARK  274  A    between atoms: _677  and  _678
REMARK  275  A    between atoms: _680  and  _682
REMARK  276  A    between atoms: _682  and  _683
REMARK  277  A    between atoms: _682  and  _685
REMARK  278  A    between atoms: _685  and  _686
REMARK  279  A    between atoms: _689  and  _691
REMARK  280  A    between atoms: _691  and  _692
REMARK  281  A    between atoms: _691  and  _694
REMARK  282  A    between atoms: _697  and  _699
REMARK  283  A    between atoms: _699  and  _700
REMARK  284  A    between atoms: _702  and  _704
REMARK  285  A    between atoms: _704  and  _705
REMARK  286  A    between atoms: _708  and  _710
REMARK  287  A    between atoms: _710  and  _711
REMARK  288  A    between atoms: _710  and  _713
REMARK  289  A    between atoms: _716  and  _718
REMARK  290  A    between atoms: _718  and  _719
REMARK  291  A    between atoms: _718  and  _721
REMARK  292  A    between atoms: _721  and  _722
REMARK  293  A    between atoms: _722  and  _723
REMARK  294  A    between atoms: _725  and  _727
REMARK  295  A    between atoms: _727  and  _728
REMARK  296  A    between atoms: _727  and  _730
REMARK  297  A    between atoms: _730  and  _731
REMARK  298  A    between atoms: _731  and  _732
REMARK                            x       y       z     vdW  Elec       q    Type
REMARK                         _______ _______ _______ _____ _____    ______ ____
ROOT
ATOM      1  CG  TRP A   1       1.645 -12.638  36.840  0.00  0.00    -0.002 A 
ATOM      2  CD1 TRP A   1       2.686 -11.870  36.391  0.00  0.00    +0.068 A 
ATOM      3  NE1 TRP A   1       2.330 -11.222  35.227  0.00  0.00    -0.352 N 
ATOM      4  CE2 TRP A   1       1.047 -11.569  34.895  0.00  0.00    +0.056 A 
ATOM      5  CZ2 TRP A   1       0.258 -11.172  33.809  0.00  0.00    +0.017 A 
ATOM      6  CH2 TRP A   1      -1.011 -11.682  33.727  0.00  0.00    +0.001 A 
ATOM      7  CZ3 TRP A   1      -1.507 -12.573  34.690  0.00  0.00    +0.000 A 
ATOM      8  CE3 TRP A   1      -0.718 -12.973  35.774  0.00  0.00    +0.001 A 
ATOM      9  HE1 TRP A   1       2.938 -10.574  34.687  0.00  0.00    +0.166 HD
ATOM     10  CD2 TRP A   1       0.581 -12.464  35.884  0.00  0.00    +0.013 A 
ENDROOT
BRANCH   1  11
ATOM     11  CB  TRP A   1       1.586 -13.415  38.131  0.00  0.00    +0.053 C 
BRANCH  11  12
ATOM     12  CA  TRP A   1       1.919 -14.925  38.080  0.00  0.00    +0.137 C 
BRANCH  12  13
ATOM     13  N   TRP A   1       3.142 -15.210  37.346  0.00  0.00    -0.239 NA
ATOM     14  H   TRP A   1       3.222 -14.923  36.350  0.00  0.00    +0.142 HD
ENDBRANCH  12  13
BRANCH  12  15
ATOM     15  C   TRP A   1       0.822 -15.711  37.391  0.00  0.00    +0.224 C 
ATOM     16  O   TRP A   1       0.843 -15.898  36.172  0.00  0.00    -0.287 OA
ENDBRANCH  12  15
ENDBRANCH  11  12
ENDBRANCH   1  11
TORSDOF 4
REMARK  Name = ../refined-set-2016/2vkm/2vkm_pocket.pdb
REMARK  298 active torsions:
REMARK  status: ('A' for Active; 'I' for Inactive)
REMARK    1  A    between atoms: _1  and  _3
REMARK    2  A    between atoms: _3  and  _4
REMARK    3  A    between atoms: _6  and  _8
REMARK    4  A    between atoms: _8  and  _9
REMARK    5  A    between atoms: _8  and  _11
REMARK    6  A    between atoms: _11  and  _12
REMARK    7  A    between atoms: _12  and  _13
REMARK    8  A    between atoms: _13  and  _14
REMARK    9  A    between atoms: _14  and  _15
REMARK   10  A    between atoms: _19  and  _21
REMARK   11  A    between atoms: _21  and  _22
REMARK   12  A    between atoms: _21  and  _24
REMARK   13  A    between atoms: _24  and  _25
REMARK   14  A    between atoms: _27  and  _29
REMARK   15  A    between atoms: _29  and  _30
REMARK   16  A    between atoms: _32  and  _34
REMARK   17  A    between atoms: _34  and  _35
REMARK   18  A    between atoms: _34  and  _37
REMARK   19  A    between atoms: _37  and  _38
REMARK   20  A    between atoms: _38  and  _39
REMARK   21  A    between atoms: _44  and  _46
REMARK   22  A    between atoms: _46  and  _47
REMARK   23  A    between atoms: _49  and  _51
REMARK   24  A    between atoms: _51  and  _52
REMARK   25  A    between atoms: _51  and  _54
REMARK   26  A    between atoms: _54  and  _55
REMARK   27  A    between atoms: _60  and  _61
REMARK   28  A    between atoms: _63  and  _65
REMARK   29  A    between atoms: _65  and  _66
REMARK   30  A    between atoms: _65  and  _68
REMARK   31  A    between atoms: _68  and  _69
REMARK   32  A    between atoms: _74  and  _75
REMARK   33  A    between atoms: _77  and  _79
REMARK   34  A    between atoms: _79  and  _80
REMARK   35  A    between atoms: _79  and  _82
REMARK   36  A    between atoms: _82  and  _83
REMARK   37  A    between atoms: _86  and  _88
REMARK   38  A    between atoms: _88  and  _89
REMARK   39  A    between atoms: _88  and  _91
REMARK   40  A    between atoms: _94  and  _96
REMARK   41  A    between atoms: _96  and  _97
REMARK   42  A    between atoms: _96  and  _99
REMARK   43  A    between atoms: _99  and  _100
REMARK   44  A    between atoms: _103  and  _105
REMARK   45  A    between atoms: _105  and  _106
REMARK   46  A    between atoms: _105  and  _108
REMARK   47  A    between atoms: _108  and  _109
REMARK   48  A    between atoms: _112  and  _114
REMARK   49  A    between atoms: _114  and  _115
REMARK   50  A    between atoms: _117  and  _119
REMARK   51  A    between atoms: _119  and  _120
REMARK   52  A    between atoms: _119  and  _122
REMARK   53  A    between atoms: _122  and  _123
REMARK   54  A    between atoms: _125  and  _127
REMARK   55  A    between atoms: _127  and  _128
REMARK   56  A    between atoms: _127  and  _130
REMARK   57  A    between atoms: _130  and  _131
REMARK   58  A    between atoms: _133  and  _135
REMARK   59  A    between atoms: _135  and  _136
REMARK   60  A    between atoms: _135  and  _138
REMARK   61  A    between atoms: _138  and  _139
REMARK   62  A    between atoms: _144  and  _146
REMARK   63  A    between atoms: _146  and  _147
REMARK   64  A    between atoms: _146  and  _149
REMARK   65  A    between atoms: _153  and  _154
REMARK   66  A    between atoms: _159  and  _161
REMARK   67  A    between atoms: _161  and  _162
REMARK   68  A    between atoms: _161  and  _164
REMARK   69  A    between atoms: _164  and  _165
REMARK   70  A    between atoms: _170  and  _171
REMARK   71  A    between atoms: _173  and  _175
REMARK   72  A    between atoms: _175  and  _176
REMARK   73  A    between atoms: _175  and  _178
REMARK   74  A    between atoms: _178  and  _179
REMARK   75  A    between atoms: _182  and  _184
REMARK   76  A    between atoms: _184  and  _185
REMARK   77  A    between atoms: _184  and  _187
REMARK   78  A    between atoms: _187  and  _188
REMARK   79  A    between atoms: _188  and  _189
REMARK   80  A    between atoms: _194  and  _196
REMARK   81  A    between atoms: _196  and  _197
REMARK   82  A    between atoms: _199  and  _201
REMARK   83  A    between atoms: _201  and  _202
REMARK   84  A    between atoms: _201  and  _204
REMARK   85  A    between atoms: _204  and  _205
REMARK   86  A    between atoms: _205  and  _206
REMARK   87  A    between atoms: _206  and  _207
REMARK   88  A    between atoms: _207  and  _208
REMARK   89  A    between atoms: _212  and  _214
REMARK   90  A    between atoms: _214  and  _215
REMARK   91  A    between atoms: _214  and  _217
REMARK   92  A    between atoms: _217  and  _218
REMARK   93  A    between atoms: _228  and  _230
REMARK   94  A    between atoms: _230  and  _231
REMARK   95  A    between atoms: _230  and  _233
REMARK   96  A    between atoms: _233  and  _234
REMARK   97  A    between atoms: _237  and  _239
REMARK   98  A    between atoms: _239  and  _240
REMARK   99  A    between atoms: _239  and  _242
REMARK  100  A    between atoms: _242  and  _243
REMARK  101  A    between atoms: _243  and  _244
REMARK  102  A    between atoms: _244  and  _245
REMARK  103  A    between atoms: _245  and  _246
REMARK  104  A    between atoms: _250  and  _252
REMARK  105  A    between atoms: _252  and  _253
REMARK  106  A    between atoms: _252  and  _255
REMARK  107  A    between atoms: _255  and  _256
REMARK  108  A    between atoms: _262  and  _264
REMARK  109  A    between atoms: _264  and  _265
REMARK  110  A    between atoms: _264  and  _267
REMARK  111  A    between atoms: _267  and  _268
REMARK  112  A    between atoms: _274  and  _276
REMARK  113  A    between atoms: _276  and  _277
REMARK  114  A    between atoms: _276  and  _279
REMARK  115  A    between atoms: _279  and  _280
REMARK  116  A    between atoms: _283  and  _285
REMARK  117  A    between atoms: _285  and  _286
REMARK  118  A    between atoms: _285  and  _288
REMARK  119  A    between atoms: _288  and  _289
REMARK  120  A    between atoms: _291  and  _293
REMARK  121  A    between atoms: _293  and  _294
REMARK  122  A    between atoms: _293  and  _296
REMARK  123  A    between atoms: _296  and  _297
REMARK  124  A    between atoms: _307  and  _309
REMARK  125  A    between atoms: _309  and  _310
REMARK  126  A    between atoms: _312  and  _314
REMARK  127  A    between atoms: _314  and  _315
REMARK  128  A    between atoms: _314  and  _317
REMARK  129  A    between atoms: _317  and  _318
REMARK  130  A    between atoms: _321  and  _323
REMARK  131  A    between atoms: _323  and  _324
REMARK  132  A    between atoms: _323  and  _326
REMARK  133  A    between atoms: _326  and  _327
REMARK  134  A    between atoms: _330  and  _332
REMARK  135  A    between atoms: _332  and  _333
REMARK  136  A    between atoms: _335  and  _337
REMARK  137  A    between atoms: _337  and  _338
REMARK  138  A    between atoms: _337  and  _340
REMARK  139  A    between atoms: _340  and  _341
REMARK  140  A    between atoms: _344  and  _346
REMARK  141  A    between atoms: _346  and  _347
REMARK  142  A    between atoms: _350  and  _352
REMARK  143  A    between atoms: _352  and  _353
REMARK  144  A    between atoms: _352  and  _355
REMARK  145  A    between atoms: _355  and  _356
REMARK  146  A    between atoms: _361  and  _362
REMARK  147  A    between atoms: _364  and  _366
REMARK  148  A    between atoms: _366  and  _367
REMARK  149  A    between atoms: _370  and  _372
REMARK  150  A    between atoms: _372  and  _373
REMARK  151  A    between atoms: _372  and  _375
REMARK  152  A    between atoms: _375  and  _376
REMARK  153  A    between atoms: _376  and  _377
REMARK  154  A    between atoms: _380  and  _382
REMARK  155  A    between atoms: _382  and  _383
REMARK  156  A    between atoms: _382  and  _385
REMARK  157  A    between atoms: _385  and  _386
REMARK  158  A    between atoms: _389  and  _391
REMARK  159  A    between atoms: _391  and  _392
REMARK  160  A    between atoms: _395  and  _397
REMARK  161  A    between atoms: _397  and  _398
REMARK  162  A    between atoms: _397  and  _400
REMARK  163  A    between atoms: _400  and  _401
REMARK  164  A    between atoms: _401  and  _402
REMARK  165  A    between atoms: _402  and  _403
REMARK  166  A    between atoms: _412  and  _414
REMARK  167  A    between atoms: _414  and  _415
REMARK  168  A    between atoms: _414  and  _417
REMARK  169  A    between atoms: _417  and  _418
REMARK  170  A    between atoms: _421  and  _423
REMARK  171  A    between atoms: _423  and  _424
REMARK  172  A    between atoms: _426  and  _428
REMARK  173  A    between atoms: _428  and  _429
REMARK  174  A    between atoms: _428  and  _431
REMARK  175  A    between atoms: _431  and  _432
REMARK  176  A    between atoms: _442  and  _444
REMARK  177  A    between atoms: _444  and  _445
REMARK  178  A    between atoms: _444  and  _447
REMARK  179  A    between atoms: _447  and  _448
REMARK  180  A    between atoms: _453  and  _454
REMARK  181  A    between atoms: _456  and  _458
REMARK  182  A    between atoms: _458  and  _459
REMARK  183  A    between atoms: _458  and  _461
REMARK  184  A    between atoms: _461  and  _462
REMARK  185  A    between atoms: _467  and  _468
REMARK  186  A    between atoms: _470  and  _472
REMARK  187  A    between atoms: _472  and  _473
REMARK  188  A    between atoms: _472  and  _475
REMARK  189  A    between atoms: _475  and  _476
REMARK  190  A    between atoms: _476  and  _477
REMARK  191  A    between atoms: _477  and  _478
REMARK  192  A    between atoms: _478  and  _479
REMARK  193  A    between atoms: _483  and  _485
REMARK  194  A    between atoms: _485  and  _486
REMARK  195  A    between atoms: _485  and  _488
REMARK  196  A    between atoms: _488  and  _489
REMARK  197  A    between atoms: _492  and  _494
REMARK  198  A    between atoms: _494  and  _495
REMARK  199  A    between atoms: _494  and  _497
REMARK  200  A    between atoms: _500  and  _502
REMARK  201  A    between atoms: _502  and  _503
REMARK  202  A    between atoms: _502  and  _505
REMARK  203  A    between atoms: _505  and  _506
REMARK  204  A    between atoms: _509  and  _511
REMARK  205  A    between atoms: _511  and  _512
REMARK  206  A    between atoms: _511  and  _514
REMARK  207  A    between atoms: _514  and  _515
REMARK  208  A    between atoms: _517  and  _519
REMARK  209  A    between atoms: _519  and  _520
REMARK  210  A    between atoms: _522  and  _524
REMARK  211  A    between atoms: _524  and  _525
REMARK  212  A    between atoms: _524  and  _527
REMARK  213  A    between atoms: _527  and  _528
REMARK  214  A    between atoms: _531  and  _533
REMARK  215  A    between atoms: _533  and  _534
REMARK  216  A    between atoms: _533  and  _536
REMARK  217  A    between atoms: _536  and  _537
REMARK  218  A    between atoms: _540  and  _542
REMARK  219  A    between atoms: _542  and  _543
REMARK  220  A    between atoms: _542  and  _545
REMARK  221  A    between atoms: _545  and  _546
REMARK  222  A    between atoms: _551  and  _553
REMARK  223  A    between atoms: _553  and  _554
REMARK  224  A    between atoms: _553  and  _556
REMARK  225  A    between atoms: _556  and  _557
REMARK  226  A    between atoms: _560  and  _562
REMARK  227  A    between atoms: _562  and  _563
REMARK  228  A    between atoms: _562  and  _565
REMARK  229  A    between atoms: _565  and  _566
REMARK  230  A    between atoms: _566  and  _567
REMARK  231  A    between atoms: _567  and  _568
REMARK  232  A    between atoms: _577  and  _579
REMARK  233  A    between atoms: _579  and  _580
REMARK  234  A    between atoms: _579  and  _582
REMARK  235  A    between atoms: _582  and  _583
REMARK  236  A    between atoms: _586  and  _588
REMARK  237  A    between atoms: _588  and  _589
REMARK  238  A    between atoms: _588  and  _591
REMARK  239  A    between atoms: _591  and  _592
REMARK  240  A    between atoms: _595  and  _597
REMARK  241  A    between atoms: _597  and  _598
REMARK  242  A    between atoms: _600  and  _602
REMARK  243  A    between atoms: _602  and  _603
REMARK  244  A    between atoms: _602  and  _605
REMARK  245  A    between atoms: _605  and  _606
REMARK  246  A    between atoms: _606  and  _607
REMARK  247  A    between atoms: _607  and  _608
REMARK  248  A    between atoms: _617  and  _619
REMARK  249  A    between atoms: _619  and  _620
REMARK  250  A    between atoms: _619  and  _622
REMARK  251  A    between atoms: _622  and  _623
REMARK  252  A    between atoms: _629  and  _631
REMARK  253  A    between atoms: _631  and  _632
REMARK  254  A    between atoms: _635  and  _637
REMARK  255  A    between atoms: _637  and  _638
REMARK  256  A    between atoms: _637  and  _640
REMARK  257  A    between atoms: _640  and  _641
REMARK  258  A    between atoms: _644  and  _646
REMARK  259  A    between atoms: _646  and  _647
REMARK  260  A    between atoms: _646  and  _649
REMARK  261  A    between atoms: _649  and  _650
REMARK  262  A    between atoms: _652  and  _654
REMARK  263  A    between atoms: _654  and  _655
REMARK  264  A    between atoms: _654  and  _657
REMARK  265  A    between atoms: _657  and  _658
REMARK  266  A    between atoms: _658  and  _659
REMARK  267  A    between atoms: _664  and  _666
REMARK  268  A    between atoms: _666  and  _667
REMARK  269  A    between atoms: _666  and  _669
REMARK  270  A    between atoms: _669  and  _670
REMARK  271  A    between atoms: _672  and  _674
REMARK  272  A    between atoms: _674  and  _675
REMARK  273  A    between atoms: _674  and  _677
REMARK  274  A    between atoms: _677  and  _678
REMARK  275  A    between atoms: _680  and  _682
REMARK  276  A    between atoms: _682  and  _683
REMARK  277  A    between atoms: _682  and  _685
REMARK  278  A    between atoms: _685  and  _686
REMARK  279  A    between atoms: _689  and  _691
REMARK  280  A    between atoms: _691  and  _692
REMARK  281  A    between atoms: _691  and  _694
REMARK  282  A    between atoms: _697  and  _699
REMARK  283  A    between atoms: _699  and  _700
REMARK  284  A    between atoms: _702  and  _704
REMARK  285  A    between atoms: _704  and  _705
REMARK  286  A    between atoms: _708  and  _710
REMARK  287  A    between atoms: _710  and  _711
REMARK  288  A    between atoms: _710  and  _713
REMARK  289  A    between atoms: _716  and  _718
REMARK  290  A    between atoms: _718  and  _719
REMARK  291  A    between atoms: _718  and  _721
REMARK  292  A    between atoms: _721  and  _722
REMARK  293  A    between atoms: _722  and  _723
REMARK  294  A    between atoms: _725  and  _727
REMARK  295  A    between atoms: _727  and  _728
REMARK  296  A    between atoms: _727  and  _730
REMARK  297  A    between atoms: _730  and  _731
REMARK  298  A    between atoms: _731  and  _732
REMARK                            x       y       z     vdW  Elec       q    Type
REMARK                         _______ _______ _______ _____ _____    ______ ____
ROOT
ATOM      1  CA  TYR A   7     -13.431   0.178  42.969  0.00  0.00    +0.153 C 
ENDROOT
BRANCH   1   4
ATOM      2  C   ALA A   6     -11.172  -0.656  42.671  0.00  0.00    +0.241 C 
ATOM      3  O   ALA A   6     -11.459  -1.707  43.269  0.00  0.00    -0.273 OA
ATOM      4  N   TYR A   7     -12.076   0.288  42.424  0.00  0.00    -0.297 N 
ATOM      5  H   TYR A   7     -11.819   1.109  41.840  0.00  0.00    +0.150 HD
BRANCH   2   6
ATOM      6  CA  ALA A   6      -9.730  -0.414  42.150  0.00  0.00    +0.149 C 
ATOM      7  CB  ALA A   6      -9.734  -0.012  40.681  0.00  0.00    +0.031 C 
BRANCH   6  10
ATOM      8  C   LEU A   5      -8.371  -1.895  43.525  0.00  0.00    +0.241 C 
ATOM      9  O   LEU A   5      -8.489  -1.163  44.515  0.00  0.00    -0.273 OA
ATOM     10  N   ALA A   6      -8.920  -1.613  42.345  0.00  0.00    -0.297 N 
ATOM     11  H   ALA A   6      -8.769  -2.261  41.545  0.00  0.00    +0.150 HD
BRANCH   8  12
ATOM     12  CA  LEU A   5      -7.561  -3.196  43.624  0.00  0.00    +0.149 C 
BRANCH  12  15
ATOM     13  C   GLY A   4      -8.190  -5.019  42.138  0.00  0.00    +0.243 C 
ATOM     14  O   GLY A   4      -9.098  -5.381  42.885  0.00  0.00    -0.273 OA
ATOM     15  N   LEU A   5      -7.428  -3.963  42.388  0.00  0.00    -0.297 N 
ATOM     16  H   LEU A   5      -6.717  -3.673  41.686  0.00  0.00    +0.150 HD
BRANCH  13  17
ATOM     17  CA  GLY A   4      -7.907  -5.771  40.849  0.00  0.00    +0.176 C 
BRANCH  17  20
ATOM     18  C   LEU A   3      -6.195  -7.288  41.654  0.00  0.00    +0.241 C 
ATOM     19  O   LEU A   3      -5.365  -6.380  41.733  0.00  0.00    -0.273 OA
ATOM     20  N   GLY A   4      -7.439  -7.097  41.218  0.00  0.00    -0.295 N 
ATOM     21  H   GLY A   4      -8.085  -7.908  41.140  0.00  0.00    +0.150 HD
BRANCH  18  22
ATOM     22  CA  LEU A   3      -5.816  -8.727  42.027  0.00  0.00    +0.149 C 
BRANCH  22  24
ATOM     23  C   ILE A   2      -5.625 -10.312  40.185  0.00  0.00    +0.241 C 
ATOM     24  N   LEU A   3      -5.105  -9.336  40.919  0.00  0.00    -0.297 N 
ATOM     25  H   LEU A   3      -4.150  -8.994  40.691  0.00  0.00    +0.150 HD
ATOM     26  O   ILE A   2      -6.738 -10.801  40.408  0.00  0.00    -0.273 OA
BRANCH  23  27
ATOM     27  CA  ILE A   2      -4.730 -10.821  39.047  0.00  0.00    +0.148 C 
BRANCH  27  29
ATOM     28  C   GLY A   1      -3.631 -12.971  38.749  0.00  0.00    +0.240 C 
ATOM     29  N   ILE A   2      -4.734 -12.268  38.990  0.00  0.00    -0.297 N 
ATOM     30  H   ILE A   2      -5.629 -12.774  39.143  0.00  0.00    +0.150 HD
ATOM     31  O   GLY A   1      -2.518 -12.469  38.613  0.00  0.00    -0.274 OA
BRANCH  28  32
ATOM     32  CA  GLY A   1      -3.808 -14.465  38.678  0.00  0.00    +0.169 C 
BRANCH  32  33
ATOM     33  N   GLY A   1      -2.548 -15.151  38.458  0.00  0.00    -0.236 NA
ATOM     34  H   GLY A   1      -1.651 -14.701  38.729  0.00  0.00    +0.142 HD
ENDBRANCH  32  33
ENDBRANCH  28  32
ENDBRANCH  27  29
BRANCH  27  35
ATOM     35  CB  ILE A   2      -5.183 -10.254  37.672  0.00  0.00    +0.027 C 
ATOM     36  CG2 ILE A   2      -6.638 -10.670  37.385  0.00  0.00    +0.002 C 
BRANCH  35  37
ATOM     37  CG1 ILE A   2      -5.053  -8.728  37.641  0.00  0.00    +0.002 C 
ATOM     38  CD1 ILE A   2      -5.348  -8.138  36.259  0.00  0.00    +0.000 C 
ENDBRANCH  35  37
ENDBRANCH  27  35
ENDBRANCH  23  27
ENDBRANCH  22  24
BRANCH  22  39
ATOM     39  CB  LEU A   3      -4.923  -8.742  43.276  0.00  0.00    +0.029 C 
BRANCH  39  40
ATOM     40  CG  LEU A   3      -5.459  -8.062  44.541  0.00  0.00    +0.002 C 
ATOM     41  CD2 LEU A   3      -4.447  -8.180  45.675  0.00  0.00    +0.000 C 
ATOM     42  CD1 LEU A   3      -6.752  -8.701  44.938  0.00  0.00    +0.000 C 
ENDBRANCH  39  40
ENDBRANCH  22  39
ENDBRANCH  18  22
ENDBRANCH  17  20
ENDBRANCH  13  17
ENDBRANCH  12  15
BRANCH  12  43
ATOM     43  CB  LEU A   5      -6.156  -2.900  44.181  0.00  0.00    +0.029 C 
BRANCH  43  44
ATOM     44  CG  LEU A   5      -5.342  -4.119  44.633  0.00  0.00    +0.002 C 
ATOM     45  CD2 LEU A   5      -5.870  -4.551  45.983  0.00  0.00    +0.000 C 
ATOM     46  CD1 LEU A   5      -3.804  -3.812  44.703  0.00  0.00    +0.000 C 
ENDBRANCH  43  44
ENDBRANCH  12  43
ENDBRANCH   8  12
ENDBRANCH   6  10
ENDBRANCH   2   6
ENDBRANCH   1   4
BRANCH   1  47
ATOM     47  C   TYR A   7     -14.482  -0.596  42.204  0.00  0.00    +0.241 C 
ATOM     48  N   ALA A   8     -15.557  -0.931  42.912  0.00  0.00    -0.297 N 
ATOM     49  H   ALA A   8     -15.624  -0.621  43.902  0.00  0.00    +0.150 HD
ATOM     50  O   TYR A   7     -14.349  -0.855  41.005  0.00  0.00    -0.273 OA
BRANCH  48  51
ATOM     51  CA  ALA A   8     -16.649  -1.722  42.343  0.00  0.00    +0.149 C 
ATOM     52  CB  ALA A   8     -17.772  -1.878  43.378  0.00  0.00    +0.031 C 
BRANCH  51  53
ATOM     53  C   ALA A   8     -17.219  -1.180  41.041  0.00  0.00    +0.241 C 
ATOM     54  N   GLU A   9     -17.254   0.137  40.931  0.00  0.00    -0.297 N 
ATOM     55  H   GLU A   9     -16.890   0.725  41.708  0.00  0.00    +0.150 HD
ATOM     56  O   ALA A   8     -17.630  -1.941  40.154  0.00  0.00    -0.273 OA
BRANCH  54  57
ATOM     57  CA  GLU A   9     -17.790   0.773  39.748  0.00  0.00    +0.149 C 
BRANCH  57  58
ATOM     58  C   GLU A   9     -17.336   0.121  38.451  0.00  0.00    +0.241 C 
ATOM     59  N   ILE A  10     -16.083  -0.314  38.386  0.00  0.00    -0.297 N 
ATOM     60  H   ILE A  10     -15.452  -0.227  39.208  0.00  0.00    +0.150 HD
ATOM     61  O   GLU A   9     -18.108   0.018  37.511  0.00  0.00    -0.273 OA
BRANCH  59  62
ATOM     62  CA  ILE A  10     -15.603  -0.916  37.147  0.00  0.00    +0.149 C 
BRANCH  62  63
ATOM     63  C   ILE A  10     -15.455  -2.424  37.139  0.00  0.00    +0.241 C 
ATOM     64  N   ALA A  11     -15.928  -3.074  38.196  0.00  0.00    -0.297 N 
ATOM     65  H   ALA A  11     -16.348  -2.536  38.981  0.00  0.00    +0.150 HD
ATOM     66  O   ILE A  10     -14.923  -2.996  36.182  0.00  0.00    -0.273 OA
BRANCH  64  67
ATOM     67  CA  ALA A  11     -15.869  -4.526  38.276  0.00  0.00    +0.149 C 
ATOM     68  CB  ALA A  11     -16.253  -4.980  39.685  0.00  0.00    +0.031 C 
BRANCH  67  69
ATOM     69  C   ALA A  11     -16.844  -5.133  37.265  0.00  0.00    +0.241 C 
ATOM     70  O   ALA A  11     -17.827  -4.500  36.899  0.00  0.00    -0.273 OA
ATOM     71  N   ARG A  12     -16.560  -6.342  36.794  0.00  0.00    -0.298 N 
ATOM     72  H   ARG A  12     -15.672  -6.805  37.074  0.00  0.00    +0.150 HD
BRANCH  71  73
ATOM     73  CA  ARG A  12     -17.476  -7.032  35.888  0.00  0.00    +0.137 C 
BRANCH  73  74
ATOM     74  C   ARG A  12     -18.020  -8.207  36.711  0.00  0.00    +0.227 C 
ATOM     75  O   ARG A  12     -17.304  -8.750  37.547  0.00  0.00    -0.286 OA
ENDBRANCH  73  74
BRANCH  73  76
ATOM     76  CB  ARG A  12     -16.746  -7.558  34.645  0.00  0.00    +0.031 C 
BRANCH  76  77
ATOM     77  CG  ARG A  12     -16.120  -6.476  33.745  0.00  0.00    +0.045 C 
BRANCH  77  78
ATOM     78  CD  ARG A  12     -17.124  -5.412  33.284  0.00  0.00    +0.174 C 
BRANCH  78  79
ATOM     79  NE  ARG A  12     -16.527  -4.481  32.317  0.00  0.00    -0.265 N 
ATOM     80  HE  ARG A  12     -16.139  -3.588  32.684  0.00  0.00    +0.259 HD
ATOM     81  CZ  ARG A  12     -16.446  -4.697  31.001  0.00  0.00    +0.342 C 
ATOM     82  NH2 ARG A  12     -16.934  -5.810  30.457  0.00  0.00    -0.292 N 
ATOM     83 HH21 ARG A  12     -17.387  -6.528  31.058  0.00  0.00    +0.255 HD
ATOM     84 HH22 ARG A  12     -16.862  -5.962  29.431  0.00  0.00    +0.255 HD
ATOM     85  NH1 ARG A  12     -15.843  -3.806  30.226  0.00  0.00    -0.292 N 
ATOM     86 HH11 ARG A  12     -15.436  -2.945  30.643  0.00  0.00    +0.255 HD
ATOM     87 HH12 ARG A  12     -15.777  -3.969  29.201  0.00  0.00    +0.255 HD
ENDBRANCH  78  79
ENDBRANCH  77  78
ENDBRANCH  76  77
ENDBRANCH  73  76
ENDBRANCH  71  73
ENDBRANCH  67  69
ENDBRANCH  64  67
ENDBRANCH  62  63
BRANCH  62  88
ATOM     88  CB  ILE A  10     -14.268  -0.280  36.709  0.00  0.00    +0.027 C 
ATOM     89  CG2 ILE A  10     -14.482   1.197  36.418  0.00  0.00    +0.002 C 
BRANCH  88  90
ATOM     90  CG1 ILE A  10     -13.213  -0.478  37.797  0.00  0.00    +0.002 C 
ATOM     91  CD1 ILE A  10     -11.876   0.161  37.444  0.00  0.00    +0.000 C 
ENDBRANCH  88  90
ENDBRANCH  62  88
ENDBRANCH  59  62
ENDBRANCH  57  58
BRANCH  57  92
ATOM     92  CB  GLU A   9     -17.384   2.232  39.714  0.00  0.00    +0.041 C 
BRANCH  92  93
ATOM     93  CG  GLU A   9     -17.697   2.868  38.404  0.00  0.00    +0.116 C 
BRANCH  93  94
ATOM     94  CD  GLU A   9     -18.953   3.653  38.479  0.00  0.00    +0.365 C 
ATOM     95  OE2 GLU A   9     -18.894   4.795  39.008  0.00  0.00    -0.246 OA
ATOM     96  OE1 GLU A   9     -19.996   3.115  38.031  0.00  0.00    -0.246 OA
ENDBRANCH  93  94
ENDBRANCH  92  93
ENDBRANCH  57  92
ENDBRANCH  54  57
ENDBRANCH  51  53
ENDBRANCH  48  51
ENDBRANCH   1  47
BRANCH   1  97
ATOM     97  CB  TYR A   7     -13.967   1.576  43.287  0.00  0.00    +0.055 C 
BRANCH  97  98
ATOM     98  CG  TYR A   7     -13.051   2.363  44.194  0.00  0.00    -0.020 A 
ATOM     99  CD2 TYR A   7     -13.208   2.327  45.584  0.00  0.00    -0.001 A 
ATOM    100  CE2 TYR A   7     -12.381   3.081  46.421  0.00  0.00    +0.036 A 
ATOM    101  CZ  TYR A   7     -11.382   3.882  45.852  0.00  0.00    +0.134 A 
ATOM    102  CE1 TYR A   7     -11.205   3.925  44.477  0.00  0.00    +0.036 A 
ATOM    103  CD1 TYR A   7     -12.033   3.171  43.657  0.00  0.00    -0.001 A 
BRANCH 101 104
ATOM    104  OH  TYR A   7     -10.580   4.654  46.642  0.00  0.00    -0.506 OA
ATOM    105  HH  TYR A   7     -11.138   5.297  47.148  0.00  0.00    +0.292 HD
ENDBRANCH 101 104
ENDBRANCH  97  98
ENDBRANCH   1  97
TORSDOF 42
REMARK  Name = ../refined-set-2016/2vkm/2vkm_pocket.pdb
REMARK  298 active torsions:
REMARK  status: ('A' for Active; 'I' for Inactive)
REMARK    1  A    between atoms: _1  and  _3
REMARK    2  A    between atoms: _3  and  _4
REMARK    3  A    between atoms: _6  and  _8
REMARK    4  A    between atoms: _8  and  _9
REMARK    5  A    between atoms: _8  and  _11
REMARK    6  A    between atoms: _11  and  _12
REMARK    7  A    between atoms: _12  and  _13
REMARK    8  A    between atoms: _13  and  _14
REMARK    9  A    between atoms: _14  and  _15
REMARK   10  A    between atoms: _19  and  _21
REMARK   11  A    between atoms: _21  and  _22
REMARK   12  A    between atoms: _21  and  _24
REMARK   13  A    between atoms: _24  and  _25
REMARK   14  A    between atoms: _27  and  _29
REMARK   15  A    between atoms: _29  and  _30
REMARK   16  A    between atoms: _32  and  _34
REMARK   17  A    between atoms: _34  and  _35
REMARK   18  A    between atoms: _34  and  _37
REMARK   19  A    between atoms: _37  and  _38
REMARK   20  A    between atoms: _38  and  _39
REMARK   21  A    between atoms: _44  and  _46
REMARK   22  A    between atoms: _46  and  _47
REMARK   23  A    between atoms: _49  and  _51
REMARK   24  A    between atoms: _51  and  _52
REMARK   25  A    between atoms: _51  and  _54
REMARK   26  A    between atoms: _54  and  _55
REMARK   27  A    between atoms: _60  and  _61
REMARK   28  A    between atoms: _63  and  _65
REMARK   29  A    between atoms: _65  and  _66
REMARK   30  A    between atoms: _65  and  _68
REMARK   31  A    between atoms: _68  and  _69
REMARK   32  A    between atoms: _74  and  _75
REMARK   33  A    between atoms: _77  and  _79
REMARK   34  A    between atoms: _79  and  _80
REMARK   35  A    between atoms: _79  and  _82
REMARK   36  A    between atoms: _82  and  _83
REMARK   37  A    between atoms: _86  and  _88
REMARK   38  A    between atoms: _88  and  _89
REMARK   39  A    between atoms: _88  and  _91
REMARK   40  A    between atoms: _94  and  _96
REMARK   41  A    between atoms: _96  and  _97
REMARK   42  A    between atoms: _96  and  _99
REMARK   43  A    between atoms: _99  and  _100
REMARK   44  A    between atoms: _103  and  _105
REMARK   45  A    between atoms: _105  and  _106
REMARK   46  A    between atoms: _105  and  _108
REMARK   47  A    between atoms: _108  and  _109
REMARK   48  A    between atoms: _112  and  _114
REMARK   49  A    between atoms: _114  and  _115
REMARK   50  A    between atoms: _117  and  _119
REMARK   51  A    between atoms: _119  and  _120
REMARK   52  A    between atoms: _119  and  _122
REMARK   53  A    between atoms: _122  and  _123
REMARK   54  A    between atoms: _125  and  _127
REMARK   55  A    between atoms: _127  and  _128
REMARK   56  A    between atoms: _127  and  _130
REMARK   57  A    between atoms: _130  and  _131
REMARK   58  A    between atoms: _133  and  _135
REMARK   59  A    between atoms: _135  and  _136
REMARK   60  A    between atoms: _135  and  _138
REMARK   61  A    between atoms: _138  and  _139
REMARK   62  A    between atoms: _144  and  _146
REMARK   63  A    between atoms: _146  and  _147
REMARK   64  A    between atoms: _146  and  _149
REMARK   65  A    between atoms: _153  and  _154
REMARK   66  A    between atoms: _159  and  _161
REMARK   67  A    between atoms: _161  and  _162
REMARK   68  A    between atoms: _161  and  _164
REMARK   69  A    between atoms: _164  and  _165
REMARK   70  A    between atoms: _170  and  _171
REMARK   71  A    between atoms: _173  and  _175
REMARK   72  A    between atoms: _175  and  _176
REMARK   73  A    between atoms: _175  and  _178
REMARK   74  A    between atoms: _178  and  _179
REMARK   75  A    between atoms: _182  and  _184
REMARK   76  A    between atoms: _184  and  _185
REMARK   77  A    between atoms: _184  and  _187
REMARK   78  A    between atoms: _187  and  _188
REMARK   79  A    between atoms: _188  and  _189
REMARK   80  A    between atoms: _194  and  _196
REMARK   81  A    between atoms: _196  and  _197
REMARK   82  A    between atoms: _199  and  _201
REMARK   83  A    between atoms: _201  and  _202
REMARK   84  A    between atoms: _201  and  _204
REMARK   85  A    between atoms: _204  and  _205
REMARK   86  A    between atoms: _205  and  _206
REMARK   87  A    between atoms: _206  and  _207
REMARK   88  A    between atoms: _207  and  _208
REMARK   89  A    between atoms: _212  and  _214
REMARK   90  A    between atoms: _214  and  _215
REMARK   91  A    between atoms: _214  and  _217
REMARK   92  A    between atoms: _217  and  _218
REMARK   93  A    between atoms: _228  and  _230
REMARK   94  A    between atoms: _230  and  _231
REMARK   95  A    between atoms: _230  and  _233
REMARK   96  A    between atoms: _233  and  _234
REMARK   97  A    between atoms: _237  and  _239
REMARK   98  A    between atoms: _239  and  _240
REMARK   99  A    between atoms: _239  and  _242
REMARK  100  A    between atoms: _242  and  _243
REMARK  101  A    between atoms: _243  and  _244
REMARK  102  A    between atoms: _244  and  _245
REMARK  103  A    between atoms: _245  and  _246
REMARK  104  A    between atoms: _250  and  _252
REMARK  105  A    between atoms: _252  and  _253
REMARK  106  A    between atoms: _252  and  _255
REMARK  107  A    between atoms: _255  and  _256
REMARK  108  A    between atoms: _262  and  _264
REMARK  109  A    between atoms: _264  and  _265
REMARK  110  A    between atoms: _264  and  _267
REMARK  111  A    between atoms: _267  and  _268
REMARK  112  A    between atoms: _274  and  _276
REMARK  113  A    between atoms: _276  and  _277
REMARK  114  A    between atoms: _276  and  _279
REMARK  115  A    between atoms: _279  and  _280
REMARK  116  A    between atoms: _283  and  _285
REMARK  117  A    between atoms: _285  and  _286
REMARK  118  A    between atoms: _285  and  _288
REMARK  119  A    between atoms: _288  and  _289
REMARK  120  A    between atoms: _291  and  _293
REMARK  121  A    between atoms: _293  and  _294
REMARK  122  A    between atoms: _293  and  _296
REMARK  123  A    between atoms: _296  and  _297
REMARK  124  A    between atoms: _307  and  _309
REMARK  125  A    between atoms: _309  and  _310
REMARK  126  A    between atoms: _312  and  _314
REMARK  127  A    between atoms: _314  and  _315
REMARK  128  A    between atoms: _314  and  _317
REMARK  129  A    between atoms: _317  and  _318
REMARK  130  A    between atoms: _321  and  _323
REMARK  131  A    between atoms: _323  and  _324
REMARK  132  A    between atoms: _323  and  _326
REMARK  133  A    between atoms: _326  and  _327
REMARK  134  A    between atoms: _330  and  _332
REMARK  135  A    between atoms: _332  and  _333
REMARK  136  A    between atoms: _335  and  _337
REMARK  137  A    between atoms: _337  and  _338
REMARK  138  A    between atoms: _337  and  _340
REMARK  139  A    between atoms: _340  and  _341
REMARK  140  A    between atoms: _344  and  _346
REMARK  141  A    between atoms: _346  and  _347
REMARK  142  A    between atoms: _350  and  _352
REMARK  143  A    between atoms: _352  and  _353
REMARK  144  A    between atoms: _352  and  _355
REMARK  145  A    between atoms: _355  and  _356
REMARK  146  A    between atoms: _361  and  _362
REMARK  147  A    between atoms: _364  and  _366
REMARK  148  A    between atoms: _366  and  _367
REMARK  149  A    between atoms: _370  and  _372
REMARK  150  A    between atoms: _372  and  _373
REMARK  151  A    between atoms: _372  and  _375
REMARK  152  A    between atoms: _375  and  _376
REMARK  153  A    between atoms: _376  and  _377
REMARK  154  A    between atoms: _380  and  _382
REMARK  155  A    between atoms: _382  and  _383
REMARK  156  A    between atoms: _382  and  _385
REMARK  157  A    between atoms: _385  and  _386
REMARK  158  A    between atoms: _389  and  _391
REMARK  159  A    between atoms: _391  and  _392
REMARK  160  A    between atoms: _395  and  _397
REMARK  161  A    between atoms: _397  and  _398
REMARK  162  A    between atoms: _397  and  _400
REMARK  163  A    between atoms: _400  and  _401
REMARK  164  A    between atoms: _401  and  _402
REMARK  165  A    between atoms: _402  and  _403
REMARK  166  A    between atoms: _412  and  _414
REMARK  167  A    between atoms: _414  and  _415
REMARK  168  A    between atoms: _414  and  _417
REMARK  169  A    between atoms: _417  and  _418
REMARK  170  A    between atoms: _421  and  _423
REMARK  171  A    between atoms: _423  and  _424
REMARK  172  A    between atoms: _426  and  _428
REMARK  173  A    between atoms: _428  and  _429
REMARK  174  A    between atoms: _428  and  _431
REMARK  175  A    between atoms: _431  and  _432
REMARK  176  A    between atoms: _442  and  _444
REMARK  177  A    between atoms: _444  and  _445
REMARK  178  A    between atoms: _444  and  _447
REMARK  179  A    between atoms: _447  and  _448
REMARK  180  A    between atoms: _453  and  _454
REMARK  181  A    between atoms: _456  and  _458
REMARK  182  A    between atoms: _458  and  _459
REMARK  183  A    between atoms: _458  and  _461
REMARK  184  A    between atoms: _461  and  _462
REMARK  185  A    between atoms: _467  and  _468
REMARK  186  A    between atoms: _470  and  _472
REMARK  187  A    between atoms: _472  and  _473
REMARK  188  A    between atoms: _472  and  _475
REMARK  189  A    between atoms: _475  and  _476
REMARK  190  A    between atoms: _476  and  _477
REMARK  191  A    between atoms: _477  and  _478
REMARK  192  A    between atoms: _478  and  _479
REMARK  193  A    between atoms: _483  and  _485
REMARK  194  A    between atoms: _485  and  _486
REMARK  195  A    between atoms: _485  and  _488
REMARK  196  A    between atoms: _488  and  _489
REMARK  197  A    between atoms: _492  and  _494
REMARK  198  A    between atoms: _494  and  _495
REMARK  199  A    between atoms: _494  and  _497
REMARK  200  A    between atoms: _500  and  _502
REMARK  201  A    between atoms: _502  and  _503
REMARK  202  A    between atoms: _502  and  _505
REMARK  203  A    between atoms: _505  and  _506
REMARK  204  A    between atoms: _509  and  _511
REMARK  205  A    between atoms: _511  and  _512
REMARK  206  A    between atoms: _511  and  _514
REMARK  207  A    between atoms: _514  and  _515
REMARK  208  A    between atoms: _517  and  _519
REMARK  209  A    between atoms: _519  and  _520
REMARK  210  A    between atoms: _522  and  _524
REMARK  211  A    between atoms: _524  and  _525
REMARK  212  A    between atoms: _524  and  _527
REMARK  213  A    between atoms: _527  and  _528
REMARK  214  A    between atoms: _531  and  _533
REMARK  215  A    between atoms: _533  and  _534
REMARK  216  A    between atoms: _533  and  _536
REMARK  217  A    between atoms: _536  and  _537
REMARK  218  A    between atoms: _540  and  _542
REMARK  219  A    between atoms: _542  and  _543
REMARK  220  A    between atoms: _542  and  _545
REMARK  221  A    between atoms: _545  and  _546
REMARK  222  A    between atoms: _551  and  _553
REMARK  223  A    between atoms: _553  and  _554
REMARK  224  A    between atoms: _553  and  _556
REMARK  225  A    between atoms: _556  and  _557
REMARK  226  A    between atoms: _560  and  _562
REMARK  227  A    between atoms: _562  and  _563
REMARK  228  A    between atoms: _562  and  _565
REMARK  229  A    between atoms: _565  and  _566
REMARK  230  A    between atoms: _566  and  _567
REMARK  231  A    between atoms: _567  and  _568
REMARK  232  A    between atoms: _577  and  _579
REMARK  233  A    between atoms: _579  and  _580
REMARK  234  A    between atoms: _579  and  _582
REMARK  235  A    between atoms: _582  and  _583
REMARK  236  A    between atoms: _586  and  _588
REMARK  237  A    between atoms: _588  and  _589
REMARK  238  A    between atoms: _588  and  _591
REMARK  239  A    between atoms: _591  and  _592
REMARK  240  A    between atoms: _595  and  _597
REMARK  241  A    between atoms: _597  and  _598
REMARK  242  A    between atoms: _600  and  _602
REMARK  243  A    between atoms: _602  and  _603
REMARK  244  A    between atoms: _602  and  _605
REMARK  245  A    between atoms: _605  and  _606
REMARK  246  A    between atoms: _606  and  _607
REMARK  247  A    between atoms: _607  and  _608
REMARK  248  A    between atoms: _617  and  _619
REMARK  249  A    between atoms: _619  and  _620
REMARK  250  A    between atoms: _619  and  _622
REMARK  251  A    between atoms: _622  and  _623
REMARK  252  A    between atoms: _629  and  _631
REMARK  253  A    between atoms: _631  and  _632
REMARK  254  A    between atoms: _635  and  _637
REMARK  255  A    between atoms: _637  and  _638
REMARK  256  A    between atoms: _637  and  _640
REMARK  257  A    between atoms: _640  and  _641
REMARK  258  A    between atoms: _644  and  _646
REMARK  259  A    between atoms: _646  and  _647
REMARK  260  A    between atoms: _646  and  _649
REMARK  261  A    between atoms: _649  and  _650
REMARK  262  A    between atoms: _652  and  _654
REMARK  263  A    between atoms: _654  and  _655
REMARK  264  A    between atoms: _654  and  _657
REMARK  265  A    between atoms: _657  and  _658
REMARK  266  A    between atoms: _658  and  _659
REMARK  267  A    between atoms: _664  and  _666
REMARK  268  A    between atoms: _666  and  _667
REMARK  269  A    between atoms: _666  and  _669
REMARK  270  A    between atoms: _669  and  _670
REMARK  271  A    between atoms: _672  and  _674
REMARK  272  A    between atoms: _674  and  _675
REMARK  273  A    between atoms: _674  and  _677
REMARK  274  A    between atoms: _677  and  _678
REMARK  275  A    between atoms: _680  and  _682
REMARK  276  A    between atoms: _682  and  _683
REMARK  277  A    between atoms: _682  and  _685
REMARK  278  A    between atoms: _685  and  _686
REMARK  279  A    between atoms: _689  and  _691
REMARK  280  A    between atoms: _691  and  _692
REMARK  281  A    between atoms: _691  and  _694
REMARK  282  A    between atoms: _697  and  _699
REMARK  283  A    between atoms: _699  and  _700
REMARK  284  A    between atoms: _702  and  _704
REMARK  285  A    between atoms: _704  and  _705
REMARK  286  A    between atoms: _708  and  _710
REMARK  287  A    between atoms: _710  and  _711
REMARK  288  A    between atoms: _710  and  _713
REMARK  289  A    between atoms: _716  and  _718
REMARK  290  A    between atoms: _718  and  _719
REMARK  291  A    between atoms: _718  and  _721
REMARK  292  A    between atoms: _721  and  _722
REMARK  293  A    between atoms: _722  and  _723
REMARK  294  A    between atoms: _725  and  _727
REMARK  295  A    between atoms: _727  and  _728
REMARK  296  A    between atoms: _727  and  _730
REMARK  297  A    between atoms: _730  and  _731
REMARK  298  A    between atoms: _731  and  _732
REMARK                            x       y       z     vdW  Elec       q    Type
REMARK                         _______ _______ _______ _____ _____    ______ ____
ROOT
ATOM      1  CA  LEU A   1       7.325  -1.170  42.533  0.00  0.00    +0.133 C 
ENDROOT
BRANCH   1   2
ATOM      2  N   LEU A   1       6.976  -0.250  43.612  0.00  0.00    -0.239 NA
ATOM      3  H   LEU A   1       6.722   0.731  43.379  0.00  0.00    +0.142 HD
ENDBRANCH   1   2
BRANCH   1   4
ATOM      4  C   LEU A   1       8.775  -0.841  42.159  0.00  0.00    +0.224 C 
ATOM      5  O   LEU A   1       9.098   0.307  41.846  0.00  0.00    -0.287 OA
ENDBRANCH   1   4
BRANCH   1   6
ATOM      6  CB  LEU A   1       6.378  -0.971  41.334  0.00  0.00    +0.025 C 
BRANCH   6   7
ATOM      7  CG  LEU A   1       4.890  -1.046  41.722  0.00  0.00    +0.002 C 
ATOM      8  CD2 LEU A   1       4.602  -2.369  42.437  0.00  0.00    +0.000 C 
ATOM      9  CD1 LEU A   1       4.004  -0.891  40.488  0.00  0.00    +0.000 C 
ENDBRANCH   6   7
ENDBRANCH   1   6
TORSDOF 4
REMARK  Name = ../refined-set-2016/2vkm/2vkm_pocket.pdb
REMARK  298 active torsions:
REMARK  status: ('A' for Active; 'I' for Inactive)
REMARK    1  A    between atoms: _1  and  _3
REMARK    2  A    between atoms: _3  and  _4
REMARK    3  A    between atoms: _6  and  _8
REMARK    4  A    between atoms: _8  and  _9
REMARK    5  A    between atoms: _8  and  _11
REMARK    6  A    between atoms: _11  and  _12
REMARK    7  A    between atoms: _12  and  _13
REMARK    8  A    between atoms: _13  and  _14
REMARK    9  A    between atoms: _14  and  _15
REMARK   10  A    between atoms: _19  and  _21
REMARK   11  A    between atoms: _21  and  _22
REMARK   12  A    between atoms: _21  and  _24
REMARK   13  A    between atoms: _24  and  _25
REMARK   14  A    between atoms: _27  and  _29
REMARK   15  A    between atoms: _29  and  _30
REMARK   16  A    between atoms: _32  and  _34
REMARK   17  A    between atoms: _34  and  _35
REMARK   18  A    between atoms: _34  and  _37
REMARK   19  A    between atoms: _37  and  _38
REMARK   20  A    between atoms: _38  and  _39
REMARK   21  A    between atoms: _44  and  _46
REMARK   22  A    between atoms: _46  and  _47
REMARK   23  A    between atoms: _49  and  _51
REMARK   24  A    between atoms: _51  and  _52
REMARK   25  A    between atoms: _51  and  _54
REMARK   26  A    between atoms: _54  and  _55
REMARK   27  A    between atoms: _60  and  _61
REMARK   28  A    between atoms: _63  and  _65
REMARK   29  A    between atoms: _65  and  _66
REMARK   30  A    between atoms: _65  and  _68
REMARK   31  A    between atoms: _68  and  _69
REMARK   32  A    between atoms: _74  and  _75
REMARK   33  A    between atoms: _77  and  _79
REMARK   34  A    between atoms: _79  and  _80
REMARK   35  A    between atoms: _79  and  _82
REMARK   36  A    between atoms: _82  and  _83
REMARK   37  A    between atoms: _86  and  _88
REMARK   38  A    between atoms: _88  and  _89
REMARK   39  A    between atoms: _88  and  _91
REMARK   40  A    between atoms: _94  and  _96
REMARK   41  A    between atoms: _96  and  _97
REMARK   42  A    between atoms: _96  and  _99
REMARK   43  A    between atoms: _99  and  _100
REMARK   44  A    between atoms: _103  and  _105
REMARK   45  A    between atoms: _105  and  _106
REMARK   46  A    between atoms: _105  and  _108
REMARK   47  A    between atoms: _108  and  _109
REMARK   48  A    between atoms: _112  and  _114
REMARK   49  A    between atoms: _114  and  _115
REMARK   50  A    between atoms: _117  and  _119
REMARK   51  A    between atoms: _119  and  _120
REMARK   52  A    between atoms: _119  and  _122
REMARK   53  A    between atoms: _122  and  _123
REMARK   54  A    between atoms: _125  and  _127
REMARK   55  A    between atoms: _127  and  _128
REMARK   56  A    between atoms: _127  and  _130
REMARK   57  A    between atoms: _130  and  _131
REMARK   58  A    between atoms: _133  and  _135
REMARK   59  A    between atoms: _135  and  _136
REMARK   60  A    between atoms: _135  and  _138
REMARK   61  A    between atoms: _138  and  _139
REMARK   62  A    between atoms: _144  and  _146
REMARK   63  A    between atoms: _146  and  _147
REMARK   64  A    between atoms: _146  and  _149
REMARK   65  A    between atoms: _153  and  _154
REMARK   66  A    between atoms: _159  and  _161
REMARK   67  A    between atoms: _161  and  _162
REMARK   68  A    between atoms: _161  and  _164
REMARK   69  A    between atoms: _164  and  _165
REMARK   70  A    between atoms: _170  and  _171
REMARK   71  A    between atoms: _173  and  _175
REMARK   72  A    between atoms: _175  and  _176
REMARK   73  A    between atoms: _175  and  _178
REMARK   74  A    between atoms: _178  and  _179
REMARK   75  A    between atoms: _182  and  _184
REMARK   76  A    between atoms: _184  and  _185
REMARK   77  A    between atoms: _184  and  _187
REMARK   78  A    between atoms: _187  and  _188
REMARK   79  A    between atoms: _188  and  _189
REMARK   80  A    between atoms: _194  and  _196
REMARK   81  A    between atoms: _196  and  _197
REMARK   82  A    between atoms: _199  and  _201
REMARK   83  A    between atoms: _201  and  _202
REMARK   84  A    between atoms: _201  and  _204
REMARK   85  A    between atoms: _204  and  _205
REMARK   86  A    between atoms: _205  and  _206
REMARK   87  A    between atoms: _206  and  _207
REMARK   88  A    between atoms: _207  and  _208
REMARK   89  A    between atoms: _212  and  _214
REMARK   90  A    between atoms: _214  and  _215
REMARK   91  A    between atoms: _214  and  _217
REMARK   92  A    between atoms: _217  and  _218
REMARK   93  A    between atoms: _228  and  _230
REMARK   94  A    between atoms: _230  and  _231
REMARK   95  A    between atoms: _230  and  _233
REMARK   96  A    between atoms: _233  and  _234
REMARK   97  A    between atoms: _237  and  _239
REMARK   98  A    between atoms: _239  and  _240
REMARK   99  A    between atoms: _239  and  _242
REMARK  100  A    between atoms: _242  and  _243
REMARK  101  A    between atoms: _243  and  _244
REMARK  102  A    between atoms: _244  and  _245
REMARK  103  A    between atoms: _245  and  _246
REMARK  104  A    between atoms: _250  and  _252
REMARK  105  A    between atoms: _252  and  _253
REMARK  106  A    between atoms: _252  and  _255
REMARK  107  A    between atoms: _255  and  _256
REMARK  108  A    between atoms: _262  and  _264
REMARK  109  A    between atoms: _264  and  _265
REMARK  110  A    between atoms: _264  and  _267
REMARK  111  A    between atoms: _267  and  _268
REMARK  112  A    between atoms: _274  and  _276
REMARK  113  A    between atoms: _276  and  _277
REMARK  114  A    between atoms: _276  and  _279
REMARK  115  A    between atoms: _279  and  _280
REMARK  116  A    between atoms: _283  and  _285
REMARK  117  A    between atoms: _285  and  _286
REMARK  118  A    between atoms: _285  and  _288
REMARK  119  A    between atoms: _288  and  _289
REMARK  120  A    between atoms: _291  and  _293
REMARK  121  A    between atoms: _293  and  _294
REMARK  122  A    between atoms: _293  and  _296
REMARK  123  A    between atoms: _296  and  _297
REMARK  124  A    between atoms: _307  and  _309
REMARK  125  A    between atoms: _309  and  _310
REMARK  126  A    between atoms: _312  and  _314
REMARK  127  A    between atoms: _314  and  _315
REMARK  128  A    between atoms: _314  and  _317
REMARK  129  A    between atoms: _317  and  _318
REMARK  130  A    between atoms: _321  and  _323
REMARK  131  A    between atoms: _323  and  _324
REMARK  132  A    between atoms: _323  and  _326
REMARK  133  A    between atoms: _326  and  _327
REMARK  134  A    between atoms: _330  and  _332
REMARK  135  A    between atoms: _332  and  _333
REMARK  136  A    between atoms: _335  and  _337
REMARK  137  A    between atoms: _337  and  _338
REMARK  138  A    between atoms: _337  and  _340
REMARK  139  A    between atoms: _340  and  _341
REMARK  140  A    between atoms: _344  and  _346
REMARK  141  A    between atoms: _346  and  _347
REMARK  142  A    between atoms: _350  and  _352
REMARK  143  A    between atoms: _352  and  _353
REMARK  144  A    between atoms: _352  and  _355
REMARK  145  A    between atoms: _355  and  _356
REMARK  146  A    between atoms: _361  and  _362
REMARK  147  A    between atoms: _364  and  _366
REMARK  148  A    between atoms: _366  and  _367
REMARK  149  A    between atoms: _370  and  _372
REMARK  150  A    between atoms: _372  and  _373
REMARK  151  A    between atoms: _372  and  _375
REMARK  152  A    between atoms: _375  and  _376
REMARK  153  A    between atoms: _376  and  _377
REMARK  154  A    between atoms: _380  and  _382
REMARK  155  A    between atoms: _382  and  _383
REMARK  156  A    between atoms: _382  and  _385
REMARK  157  A    between atoms: _385  and  _386
REMARK  158  A    between atoms: _389  and  _391
REMARK  159  A    between atoms: _391  and  _392
REMARK  160  A    between atoms: _395  and  _397
REMARK  161  A    between atoms: _397  and  _398
REMARK  162  A    between atoms: _397  and  _400
REMARK  163  A    between atoms: _400  and  _401
REMARK  164  A    between atoms: _401  and  _402
REMARK  165  A    between atoms: _402  and  _403
REMARK  166  A    between atoms: _412  and  _414
REMARK  167  A    between atoms: _414  and  _415
REMARK  168  A    between atoms: _414  and  _417
REMARK  169  A    between atoms: _417  and  _418
REMARK  170  A    between atoms: _421  and  _423
REMARK  171  A    between atoms: _423  and  _424
REMARK  172  A    between atoms: _426  and  _428
REMARK  173  A    between atoms: _428  and  _429
REMARK  174  A    between atoms: _428  and  _431
REMARK  175  A    between atoms: _431  and  _432
REMARK  176  A    between atoms: _442  and  _444
REMARK  177  A    between atoms: _444  and  _445
REMARK  178  A    between atoms: _444  and  _447
REMARK  179  A    between atoms: _447  and  _448
REMARK  180  A    between atoms: _453  and  _454
REMARK  181  A    between atoms: _456  and  _458
REMARK  182  A    between atoms: _458  and  _459
REMARK  183  A    between atoms: _458  and  _461
REMARK  184  A    between atoms: _461  and  _462
REMARK  185  A    between atoms: _467  and  _468
REMARK  186  A    between atoms: _470  and  _472
REMARK  187  A    between atoms: _472  and  _473
REMARK  188  A    between atoms: _472  and  _475
REMARK  189  A    between atoms: _475  and  _476
REMARK  190  A    between atoms: _476  and  _477
REMARK  191  A    between atoms: _477  and  _478
REMARK  192  A    between atoms: _478  and  _479
REMARK  193  A    between atoms: _483  and  _485
REMARK  194  A    between atoms: _485  and  _486
REMARK  195  A    between atoms: _485  and  _488
REMARK  196  A    between atoms: _488  and  _489
REMARK  197  A    between atoms: _492  and  _494
REMARK  198  A    between atoms: _494  and  _495
REMARK  199  A    between atoms: _494  and  _497
REMARK  200  A    between atoms: _500  and  _502
REMARK  201  A    between atoms: _502  and  _503
REMARK  202  A    between atoms: _502  and  _505
REMARK  203  A    between atoms: _505  and  _506
REMARK  204  A    between atoms: _509  and  _511
REMARK  205  A    between atoms: _511  and  _512
REMARK  206  A    between atoms: _511  and  _514
REMARK  207  A    between atoms: _514  and  _515
REMARK  208  A    between atoms: _517  and  _519
REMARK  209  A    between atoms: _519  and  _520
REMARK  210  A    between atoms: _522  and  _524
REMARK  211  A    between atoms: _524  and  _525
REMARK  212  A    between atoms: _524  and  _527
REMARK  213  A    between atoms: _527  and  _528
REMARK  214  A    between atoms: _531  and  _533
REMARK  215  A    between atoms: _533  and  _534
REMARK  216  A    between atoms: _533  and  _536
REMARK  217  A    between atoms: _536  and  _537
REMARK  218  A    between atoms: _540  and  _542
REMARK  219  A    between atoms: _542  and  _543
REMARK  220  A    between atoms: _542  and  _545
REMARK  221  A    between atoms: _545  and  _546
REMARK  222  A    between atoms: _551  and  _553
REMARK  223  A    between atoms: _553  and  _554
REMARK  224  A    between atoms: _553  and  _556
REMARK  225  A    between atoms: _556  and  _557
REMARK  226  A    between atoms: _560  and  _562
REMARK  227  A    between atoms: _562  and  _563
REMARK  228  A    between atoms: _562  and  _565
REMARK  229  A    between atoms: _565  and  _566
REMARK  230  A    between atoms: _566  and  _567
REMARK  231  A    between atoms: _567  and  _568
REMARK  232  A    between atoms: _577  and  _579
REMARK  233  A    between atoms: _579  and  _580
REMARK  234  A    between atoms: _579  and  _582
REMARK  235  A    between atoms: _582  and  _583
REMARK  236  A    between atoms: _586  and  _588
REMARK  237  A    between atoms: _588  and  _589
REMARK  238  A    between atoms: _588  and  _591
REMARK  239  A    between atoms: _591  and  _592
REMARK  240  A    between atoms: _595  and  _597
REMARK  241  A    between atoms: _597  and  _598
REMARK  242  A    between atoms: _600  and  _602
REMARK  243  A    between atoms: _602  and  _603
REMARK  244  A    between atoms: _602  and  _605
REMARK  245  A    between atoms: _605  and  _606
REMARK  246  A    between atoms: _606  and  _607
REMARK  247  A    between atoms: _607  and  _608
REMARK  248  A    between atoms: _617  and  _619
REMARK  249  A    between atoms: _619  and  _620
REMARK  250  A    between atoms: _619  and  _622
REMARK  251  A    between atoms: _622  and  _623
REMARK  252  A    between atoms: _629  and  _631
REMARK  253  A    between atoms: _631  and  _632
REMARK  254  A    between atoms: _635  and  _637
REMARK  255  A    between atoms: _637  and  _638
REMARK  256  A    between atoms: _637  and  _640
REMARK  257  A    between atoms: _640  and  _641
REMARK  258  A    between atoms: _644  and  _646
REMARK  259  A    between atoms: _646  and  _647
REMARK  260  A    between atoms: _646  and  _649
REMARK  261  A    between atoms: _649  and  _650
REMARK  262  A    between atoms: _652  and  _654
REMARK  263  A    between atoms: _654  and  _655
REMARK  264  A    between atoms: _654  and  _657
REMARK  265  A    between atoms: _657  and  _658
REMARK  266  A    between atoms: _658  and  _659
REMARK  267  A    between atoms: _664  and  _666
REMARK  268  A    between atoms: _666  and  _667
REMARK  269  A    between atoms: _666  and  _669
REMARK  270  A    between atoms: _669  and  _670
REMARK  271  A    between atoms: _672  and  _674
REMARK  272  A    between atoms: _674  and  _675
REMARK  273  A    between atoms: _674  and  _677
REMARK  274  A    between atoms: _677  and  _678
REMARK  275  A    between atoms: _680  and  _682
REMARK  276  A    between atoms: _682  and  _683
REMARK  277  A    between atoms: _682  and  _685
REMARK  278  A    between atoms: _685  and  _686
REMARK  279  A    between atoms: _689  and  _691
REMARK  280  A    between atoms: _691  and  _692
REMARK  281  A    between atoms: _691  and  _694
REMARK  282  A    between atoms: _697  and  _699
REMARK  283  A    between atoms: _699  and  _700
REMARK  284  A    between atoms: _702  and  _704
REMARK  285  A    between atoms: _704  and  _705
REMARK  286  A    between atoms: _708  and  _710
REMARK  287  A    between atoms: _710  and  _711
REMARK  288  A    between atoms: _710  and  _713
REMARK  289  A    between atoms: _716  and  _718
REMARK  290  A    between atoms: _718  and  _719
REMARK  291  A    between atoms: _718  and  _721
REMARK  292  A    between atoms: _721  and  _722
REMARK  293  A    between atoms: _722  and  _723
REMARK  294  A    between atoms: _725  and  _727
REMARK  295  A    between atoms: _727  and  _728
REMARK  296  A    between atoms: _727  and  _730
REMARK  297  A    between atoms: _730  and  _731
REMARK  298  A    between atoms: _731  and  _732
REMARK                            x       y       z     vdW  Elec       q    Type
REMARK                         _______ _______ _______ _____ _____    ______ ____
ROOT
ATOM      1  CA  GLY A   1      12.446  -1.580  38.406  0.00  0.00    +0.156 C 
ENDROOT
BRANCH   1   2
ATOM      2  N   GLY A   1      11.887  -1.174  39.683  0.00  0.00    -0.238 NA
ATOM      3  H   GLY A   1      11.730  -0.167  39.889  0.00  0.00    +0.142 HD
ENDBRANCH   1   2
BRANCH   1   4
ATOM      4  C   GLY A   1      13.923  -1.821  38.684  0.00  0.00    +0.226 C 
ATOM      5  O   GLY A   1      14.428  -1.380  39.724  0.00  0.00    -0.287 OA
ENDBRANCH   1   4
TORSDOF 2
REMARK  Name = ../refined-set-2016/2vkm/2vkm_pocket.pdb
REMARK  298 active torsions:
REMARK  status: ('A' for Active; 'I' for Inactive)
REMARK    1  A    between atoms: _1  and  _3
REMARK    2  A    between atoms: _3  and  _4
REMARK    3  A    between atoms: _6  and  _8
REMARK    4  A    between atoms: _8  and  _9
REMARK    5  A    between atoms: _8  and  _11
REMARK    6  A    between atoms: _11  and  _12
REMARK    7  A    between atoms: _12  and  _13
REMARK    8  A    between atoms: _13  and  _14
REMARK    9  A    between atoms: _14  and  _15
REMARK   10  A    between atoms: _19  and  _21
REMARK   11  A    between atoms: _21  and  _22
REMARK   12  A    between atoms: _21  and  _24
REMARK   13  A    between atoms: _24  and  _25
REMARK   14  A    between atoms: _27  and  _29
REMARK   15  A    between atoms: _29  and  _30
REMARK   16  A    between atoms: _32  and  _34
REMARK   17  A    between atoms: _34  and  _35
REMARK   18  A    between atoms: _34  and  _37
REMARK   19  A    between atoms: _37  and  _38
REMARK   20  A    between atoms: _38  and  _39
REMARK   21  A    between atoms: _44  and  _46
REMARK   22  A    between atoms: _46  and  _47
REMARK   23  A    between atoms: _49  and  _51
REMARK   24  A    between atoms: _51  and  _52
REMARK   25  A    between atoms: _51  and  _54
REMARK   26  A    between atoms: _54  and  _55
REMARK   27  A    between atoms: _60  and  _61
REMARK   28  A    between atoms: _63  and  _65
REMARK   29  A    between atoms: _65  and  _66
REMARK   30  A    between atoms: _65  and  _68
REMARK   31  A    between atoms: _68  and  _69
REMARK   32  A    between atoms: _74  and  _75
REMARK   33  A    between atoms: _77  and  _79
REMARK   34  A    between atoms: _79  and  _80
REMARK   35  A    between atoms: _79  and  _82
REMARK   36  A    between atoms: _82  and  _83
REMARK   37  A    between atoms: _86  and  _88
REMARK   38  A    between atoms: _88  and  _89
REMARK   39  A    between atoms: _88  and  _91
REMARK   40  A    between atoms: _94  and  _96
REMARK   41  A    between atoms: _96  and  _97
REMARK   42  A    between atoms: _96  and  _99
REMARK   43  A    between atoms: _99  and  _100
REMARK   44  A    between atoms: _103  and  _105
REMARK   45  A    between atoms: _105  and  _106
REMARK   46  A    between atoms: _105  and  _108
REMARK   47  A    between atoms: _108  and  _109
REMARK   48  A    between atoms: _112  and  _114
REMARK   49  A    between atoms: _114  and  _115
REMARK   50  A    between atoms: _117  and  _119
REMARK   51  A    between atoms: _119  and  _120
REMARK   52  A    between atoms: _119  and  _122
REMARK   53  A    between atoms: _122  and  _123
REMARK   54  A    between atoms: _125  and  _127
REMARK   55  A    between atoms: _127  and  _128
REMARK   56  A    between atoms: _127  and  _130
REMARK   57  A    between atoms: _130  and  _131
REMARK   58  A    between atoms: _133  and  _135
REMARK   59  A    between atoms: _135  and  _136
REMARK   60  A    between atoms: _135  and  _138
REMARK   61  A    between atoms: _138  and  _139
REMARK   62  A    between atoms: _144  and  _146
REMARK   63  A    between atoms: _146  and  _147
REMARK   64  A    between atoms: _146  and  _149
REMARK   65  A    between atoms: _153  and  _154
REMARK   66  A    between atoms: _159  and  _161
REMARK   67  A    between atoms: _161  and  _162
REMARK   68  A    between atoms: _161  and  _164
REMARK   69  A    between atoms: _164  and  _165
REMARK   70  A    between atoms: _170  and  _171
REMARK   71  A    between atoms: _173  and  _175
REMARK   72  A    between atoms: _175  and  _176
REMARK   73  A    between atoms: _175  and  _178
REMARK   74  A    between atoms: _178  and  _179
REMARK   75  A    between atoms: _182  and  _184
REMARK   76  A    between atoms: _184  and  _185
REMARK   77  A    between atoms: _184  and  _187
REMARK   78  A    between atoms: _187  and  _188
REMARK   79  A    between atoms: _188  and  _189
REMARK   80  A    between atoms: _194  and  _196
REMARK   81  A    between atoms: _196  and  _197
REMARK   82  A    between atoms: _199  and  _201
REMARK   83  A    between atoms: _201  and  _202
REMARK   84  A    between atoms: _201  and  _204
REMARK   85  A    between atoms: _204  and  _205
REMARK   86  A    between atoms: _205  and  _206
REMARK   87  A    between atoms: _206  and  _207
REMARK   88  A    between atoms: _207  and  _208
REMARK   89  A    between atoms: _212  and  _214
REMARK   90  A    between atoms: _214  and  _215
REMARK   91  A    between atoms: _214  and  _217
REMARK   92  A    between atoms: _217  and  _218
REMARK   93  A    between atoms: _228  and  _230
REMARK   94  A    between atoms: _230  and  _231
REMARK   95  A    between atoms: _230  and  _233
REMARK   96  A    between atoms: _233  and  _234
REMARK   97  A    between atoms: _237  and  _239
REMARK   98  A    between atoms: _239  and  _240
REMARK   99  A    between atoms: _239  and  _242
REMARK  100  A    between atoms: _242  and  _243
REMARK  101  A    between atoms: _243  and  _244
REMARK  102  A    between atoms: _244  and  _245
REMARK  103  A    between atoms: _245  and  _246
REMARK  104  A    between atoms: _250  and  _252
REMARK  105  A    between atoms: _252  and  _253
REMARK  106  A    between atoms: _252  and  _255
REMARK  107  A    between atoms: _255  and  _256
REMARK  108  A    between atoms: _262  and  _264
REMARK  109  A    between atoms: _264  and  _265
REMARK  110  A    between atoms: _264  and  _267
REMARK  111  A    between atoms: _267  and  _268
REMARK  112  A    between atoms: _274  and  _276
REMARK  113  A    between atoms: _276  and  _277
REMARK  114  A    between atoms: _276  and  _279
REMARK  115  A    between atoms: _279  and  _280
REMARK  116  A    between atoms: _283  and  _285
REMARK  117  A    between atoms: _285  and  _286
REMARK  118  A    between atoms: _285  and  _288
REMARK  119  A    between atoms: _288  and  _289
REMARK  120  A    between atoms: _291  and  _293
REMARK  121  A    between atoms: _293  and  _294
REMARK  122  A    between atoms: _293  and  _296
REMARK  123  A    between atoms: _296  and  _297
REMARK  124  A    between atoms: _307  and  _309
REMARK  125  A    between atoms: _309  and  _310
REMARK  126  A    between atoms: _312  and  _314
REMARK  127  A    between atoms: _314  and  _315
REMARK  128  A    between atoms: _314  and  _317
REMARK  129  A    between atoms: _317  and  _318
REMARK  130  A    between atoms: _321  and  _323
REMARK  131  A    between atoms: _323  and  _324
REMARK  132  A    between atoms: _323  and  _326
REMARK  133  A    between atoms: _326  and  _327
REMARK  134  A    between atoms: _330  and  _332
REMARK  135  A    between atoms: _332  and  _333
REMARK  136  A    between atoms: _335  and  _337
REMARK  137  A    between atoms: _337  and  _338
REMARK  138  A    between atoms: _337  and  _340
REMARK  139  A    between atoms: _340  and  _341
REMARK  140  A    between atoms: _344  and  _346
REMARK  141  A    between atoms: _346  and  _347
REMARK  142  A    between atoms: _350  and  _352
REMARK  143  A    between atoms: _352  and  _353
REMARK  144  A    between atoms: _352  and  _355
REMARK  145  A    between atoms: _355  and  _356
REMARK  146  A    between atoms: _361  and  _362
REMARK  147  A    between atoms: _364  and  _366
REMARK  148  A    between atoms: _366  and  _367
REMARK  149  A    between atoms: _370  and  _372
REMARK  150  A    between atoms: _372  and  _373
REMARK  151  A    between atoms: _372  and  _375
REMARK  152  A    between atoms: _375  and  _376
REMARK  153  A    between atoms: _376  and  _377
REMARK  154  A    between atoms: _380  and  _382
REMARK  155  A    between atoms: _382  and  _383
REMARK  156  A    between atoms: _382  and  _385
REMARK  157  A    between atoms: _385  and  _386
REMARK  158  A    between atoms: _389  and  _391
REMARK  159  A    between atoms: _391  and  _392
REMARK  160  A    between atoms: _395  and  _397
REMARK  161  A    between atoms: _397  and  _398
REMARK  162  A    between atoms: _397  and  _400
REMARK  163  A    between atoms: _400  and  _401
REMARK  164  A    between atoms: _401  and  _402
REMARK  165  A    between atoms: _402  and  _403
REMARK  166  A    between atoms: _412  and  _414
REMARK  167  A    between atoms: _414  and  _415
REMARK  168  A    between atoms: _414  and  _417
REMARK  169  A    between atoms: _417  and  _418
REMARK  170  A    between atoms: _421  and  _423
REMARK  171  A    between atoms: _423  and  _424
REMARK  172  A    between atoms: _426  and  _428
REMARK  173  A    between atoms: _428  and  _429
REMARK  174  A    between atoms: _428  and  _431
REMARK  175  A    between atoms: _431  and  _432
REMARK  176  A    between atoms: _442  and  _444
REMARK  177  A    between atoms: _444  and  _445
REMARK  178  A    between atoms: _444  and  _447
REMARK  179  A    between atoms: _447  and  _448
REMARK  180  A    between atoms: _453  and  _454
REMARK  181  A    between atoms: _456  and  _458
REMARK  182  A    between atoms: _458  and  _459
REMARK  183  A    between atoms: _458  and  _461
REMARK  184  A    between atoms: _461  and  _462
REMARK  185  A    between atoms: _467  and  _468
REMARK  186  A    between atoms: _470  and  _472
REMARK  187  A    between atoms: _472  and  _473
REMARK  188  A    between atoms: _472  and  _475
REMARK  189  A    between atoms: _475  and  _476
REMARK  190  A    between atoms: _476  and  _477
REMARK  191  A    between atoms: _477  and  _478
REMARK  192  A    between atoms: _478  and  _479
REMARK  193  A    between atoms: _483  and  _485
REMARK  194  A    between atoms: _485  and  _486
REMARK  195  A    between atoms: _485  and  _488
REMARK  196  A    between atoms: _488  and  _489
REMARK  197  A    between atoms: _492  and  _494
REMARK  198  A    between atoms: _494  and  _495
REMARK  199  A    between atoms: _494  and  _497
REMARK  200  A    between atoms: _500  and  _502
REMARK  201  A    between atoms: _502  and  _503
REMARK  202  A    between atoms: _502  and  _505
REMARK  203  A    between atoms: _505  and  _506
REMARK  204  A    between atoms: _509  and  _511
REMARK  205  A    between atoms: _511  and  _512
REMARK  206  A    between atoms: _511  and  _514
REMARK  207  A    between atoms: _514  and  _515
REMARK  208  A    between atoms: _517  and  _519
REMARK  209  A    between atoms: _519  and  _520
REMARK  210  A    between atoms: _522  and  _524
REMARK  211  A    between atoms: _524  and  _525
REMARK  212  A    between atoms: _524  and  _527
REMARK  213  A    between atoms: _527  and  _528
REMARK  214  A    between atoms: _531  and  _533
REMARK  215  A    between atoms: _533  and  _534
REMARK  216  A    between atoms: _533  and  _536
REMARK  217  A    between atoms: _536  and  _537
REMARK  218  A    between atoms: _540  and  _542
REMARK  219  A    between atoms: _542  and  _543
REMARK  220  A    between atoms: _542  and  _545
REMARK  221  A    between atoms: _545  and  _546
REMARK  222  A    between atoms: _551  and  _553
REMARK  223  A    between atoms: _553  and  _554
REMARK  224  A    between atoms: _553  and  _556
REMARK  225  A    between atoms: _556  and  _557
REMARK  226  A    between atoms: _560  and  _562
REMARK  227  A    between atoms: _562  and  _563
REMARK  228  A    between atoms: _562  and  _565
REMARK  229  A    between atoms: _565  and  _566
REMARK  230  A    between atoms: _566  and  _567
REMARK  231  A    between atoms: _567  and  _568
REMARK  232  A    between atoms: _577  and  _579
REMARK  233  A    between atoms: _579  and  _580
REMARK  234  A    between atoms: _579  and  _582
REMARK  235  A    between atoms: _582  and  _583
REMARK  236  A    between atoms: _586  and  _588
REMARK  237  A    between atoms: _588  and  _589
REMARK  238  A    between atoms: _588  and  _591
REMARK  239  A    between atoms: _591  and  _592
REMARK  240  A    between atoms: _595  and  _597
REMARK  241  A    between atoms: _597  and  _598
REMARK  242  A    between atoms: _600  and  _602
REMARK  243  A    between atoms: _602  and  _603
REMARK  244  A    between atoms: _602  and  _605
REMARK  245  A    between atoms: _605  and  _606
REMARK  246  A    between atoms: _606  and  _607
REMARK  247  A    between atoms: _607  and  _608
REMARK  248  A    between atoms: _617  and  _619
REMARK  249  A    between atoms: _619  and  _620
REMARK  250  A    between atoms: _619  and  _622
REMARK  251  A    between atoms: _622  and  _623
REMARK  252  A    between atoms: _629  and  _631
REMARK  253  A    between atoms: _631  and  _632
REMARK  254  A    between atoms: _635  and  _637
REMARK  255  A    between atoms: _637  and  _638
REMARK  256  A    between atoms: _637  and  _640
REMARK  257  A    between atoms: _640  and  _641
REMARK  258  A    between atoms: _644  and  _646
REMARK  259  A    between atoms: _646  and  _647
REMARK  260  A    between atoms: _646  and  _649
REMARK  261  A    between atoms: _649  and  _650
REMARK  262  A    between atoms: _652  and  _654
REMARK  263  A    between atoms: _654  and  _655
REMARK  264  A    between atoms: _654  and  _657
REMARK  265  A    between atoms: _657  and  _658
REMARK  266  A    between atoms: _658  and  _659
REMARK  267  A    between atoms: _664  and  _666
REMARK  268  A    between atoms: _666  and  _667
REMARK  269  A    between atoms: _666  and  _669
REMARK  270  A    between atoms: _669  and  _670
REMARK  271  A    between atoms: _672  and  _674
REMARK  272  A    between atoms: _674  and  _675
REMARK  273  A    between atoms: _674  and  _677
REMARK  274  A    between atoms: _677  and  _678
REMARK  275  A    between atoms: _680  and  _682
REMARK  276  A    between atoms: _682  and  _683
REMARK  277  A    between atoms: _682  and  _685
REMARK  278  A    between atoms: _685  and  _686
REMARK  279  A    between atoms: _689  and  _691
REMARK  280  A    between atoms: _691  and  _692
REMARK  281  A    between atoms: _691  and  _694
REMARK  282  A    between atoms: _697  and  _699
REMARK  283  A    between atoms: _699  and  _700
REMARK  284  A    between atoms: _702  and  _704
REMARK  285  A    between atoms: _704  and  _705
REMARK  286  A    between atoms: _708  and  _710
REMARK  287  A    between atoms: _710  and  _711
REMARK  288  A    between atoms: _710  and  _713
REMARK  289  A    between atoms: _716  and  _718
REMARK  290  A    between atoms: _718  and  _719
REMARK  291  A    between atoms: _718  and  _721
REMARK  292  A    between atoms: _721  and  _722
REMARK  293  A    between atoms: _722  and  _723
REMARK  294  A    between atoms: _725  and  _727
REMARK  295  A    between atoms: _727  and  _728
REMARK  296  A    between atoms: _727  and  _730
REMARK  297  A    between atoms: _730  and  _731
REMARK  298  A    between atoms: _731  and  _732
REMARK                            x       y       z     vdW  Elec       q    Type
REMARK                         _______ _______ _______ _____ _____    ______ ____
ROOT
ATOM      1  CA  TYR A   2     -10.518   3.725  38.704  0.00  0.00    +0.153 C 
ENDROOT
BRANCH   1   4
ATOM      2  C   TRP A   1     -12.698   3.362  39.688  0.00  0.00    +0.239 C 
ATOM      3  O   TRP A   1     -12.322   2.294  40.170  0.00  0.00    -0.274 OA
ATOM      4  N   TYR A   2     -11.918   4.099  38.917  0.00  0.00    -0.297 N 
ATOM      5  H   TYR A   2     -12.301   4.950  38.458  0.00  0.00    +0.150 HD
BRANCH   2   6
ATOM      6  CA  TRP A   1     -14.095   3.896  40.004  0.00  0.00    +0.149 C 
BRANCH   6   7
ATOM      7  N   TRP A   1     -13.760   4.935  40.965  0.00  0.00    -0.238 NA
ATOM      8  H   TRP A   1     -12.928   5.534  40.792  0.00  0.00    +0.142 HD
ENDBRANCH   6   7
BRANCH   6   9
ATOM      9  CB  TRP A   1     -14.905   4.438  38.797  0.00  0.00    +0.054 C 
BRANCH   9  10
ATOM     10  CG  TRP A   1     -14.374   5.591  38.009  0.00  0.00    -0.002 A 
ATOM     11  CD1 TRP A   1     -13.639   6.651  38.467  0.00  0.00    +0.068 A 
ATOM     12  NE1 TRP A   1     -13.378   7.523  37.427  0.00  0.00    -0.352 N 
ATOM     13  HE1 TRP A   1     -12.838   8.409  37.503  0.00  0.00    +0.166 HD
ATOM     14  CE2 TRP A   1     -13.946   7.032  36.279  0.00  0.00    +0.056 A 
ATOM     15  CZ2 TRP A   1     -13.954   7.559  34.972  0.00  0.00    +0.017 A 
ATOM     16  CH2 TRP A   1     -14.619   6.848  34.003  0.00  0.00    +0.001 A 
ATOM     17  CZ3 TRP A   1     -15.272   5.633  34.303  0.00  0.00    +0.000 A 
ATOM     18  CE3 TRP A   1     -15.259   5.109  35.604  0.00  0.00    +0.001 A 
ATOM     19  CD2 TRP A   1     -14.586   5.818  36.610  0.00  0.00    +0.013 A 
ENDBRANCH   9  10
ENDBRANCH   6   9
ENDBRANCH   2   6
ENDBRANCH   1   4
BRANCH   1  20
ATOM     20  C   TYR A   2      -9.928   4.644  39.774  0.00  0.00    +0.241 C 
ATOM     21  O   TYR A   2     -10.675   5.373  40.423  0.00  0.00    -0.273 OA
ATOM     22  N   TYR A   3      -8.618   4.616  39.985  0.00  0.00    -0.298 N 
ATOM     23  H   TYR A   3      -8.016   3.921  39.498  0.00  0.00    +0.150 HD
BRANCH  22  24
ATOM     24  CA  TYR A   3      -8.041   5.580  40.914  0.00  0.00    +0.141 C 
BRANCH  24  25
ATOM     25  C   TYR A   3      -7.799   6.758  39.981  0.00  0.00    +0.227 C 
ATOM     26  O   TYR A   3      -6.720   6.921  39.417  0.00  0.00    -0.286 OA
ENDBRANCH  24  25
BRANCH  24  27
ATOM     27  CB  TYR A   3      -6.731   5.072  41.519  0.00  0.00    +0.054 C 
BRANCH  27  28
ATOM     28  CG  TYR A   3      -6.970   4.022  42.581  0.00  0.00    -0.020 A 
ATOM     29  CD2 TYR A   3      -7.359   4.396  43.865  0.00  0.00    -0.001 A 
ATOM     30  CE2 TYR A   3      -7.669   3.450  44.833  0.00  0.00    +0.036 A 
ATOM     31  CZ  TYR A   3      -7.585   2.098  44.529  0.00  0.00    +0.134 A 
ATOM     32  CE1 TYR A   3      -7.194   1.686  43.255  0.00  0.00    +0.036 A 
ATOM     33  CD1 TYR A   3      -6.888   2.653  42.282  0.00  0.00    -0.001 A 
BRANCH  31  34
ATOM     34  OH  TYR A   3      -7.902   1.178  45.508  0.00  0.00    -0.506 OA
ATOM     35  HH  TYR A   3      -7.796   0.263  45.146  0.00  0.00    +0.292 HD
ENDBRANCH  31  34
ENDBRANCH  27  28
ENDBRANCH  24  27
ENDBRANCH  22  24
ENDBRANCH   1  20
BRANCH   1  36
ATOM     36  CB  TYR A   2     -10.003   4.227  37.360  0.00  0.00    +0.055 C 
BRANCH  36  37
ATOM     37  CG  TYR A   2     -10.514   3.518  36.165  0.00  0.00    -0.020 A 
ATOM     38  CD2 TYR A   2      -9.998   2.284  35.809  0.00  0.00    -0.001 A 
ATOM     39  CE2 TYR A   2     -10.432   1.619  34.667  0.00  0.00    +0.036 A 
ATOM     40  CZ  TYR A   2     -11.399   2.195  33.879  0.00  0.00    +0.134 A 
ATOM     41  CE1 TYR A   2     -11.939   3.437  34.210  0.00  0.00    +0.036 A 
ATOM     42  CD1 TYR A   2     -11.491   4.090  35.355  0.00  0.00    -0.001 A 
BRANCH  40  43
ATOM     43  OH  TYR A   2     -11.838   1.508  32.785  0.00  0.00    -0.506 OA
ATOM     44  HH  TYR A   2     -11.684   2.051  31.972  0.00  0.00    +0.292 HD
ENDBRANCH  40  43
ENDBRANCH  36  37
ENDBRANCH   1  36
TORSDOF 14
REMARK  Name = ../refined-set-2016/2vkm/2vkm_pocket.pdb
REMARK  298 active torsions:
REMARK  status: ('A' for Active; 'I' for Inactive)
REMARK    1  A    between atoms: _1  and  _3
REMARK    2  A    between atoms: _3  and  _4
REMARK    3  A    between atoms: _6  and  _8
REMARK    4  A    between atoms: _8  and  _9
REMARK    5  A    between atoms: _8  and  _11
REMARK    6  A    between atoms: _11  and  _12
REMARK    7  A    between atoms: _12  and  _13
REMARK    8  A    between atoms: _13  and  _14
REMARK    9  A    between atoms: _14  and  _15
REMARK   10  A    between atoms: _19  and  _21
REMARK   11  A    between atoms: _21  and  _22
REMARK   12  A    between atoms: _21  and  _24
REMARK   13  A    between atoms: _24  and  _25
REMARK   14  A    between atoms: _27  and  _29
REMARK   15  A    between atoms: _29  and  _30
REMARK   16  A    between atoms: _32  and  _34
REMARK   17  A    between atoms: _34  and  _35
REMARK   18  A    between atoms: _34  and  _37
REMARK   19  A    between atoms: _37  and  _38
REMARK   20  A    between atoms: _38  and  _39
REMARK   21  A    between atoms: _44  and  _46
REMARK   22  A    between atoms: _46  and  _47
REMARK   23  A    between atoms: _49  and  _51
REMARK   24  A    between atoms: _51  and  _52
REMARK   25  A    between atoms: _51  and  _54
REMARK   26  A    between atoms: _54  and  _55
REMARK   27  A    between atoms: _60  and  _61
REMARK   28  A    between atoms: _63  and  _65
REMARK   29  A    between atoms: _65  and  _66
REMARK   30  A    between atoms: _65  and  _68
REMARK   31  A    between atoms: _68  and  _69
REMARK   32  A    between atoms: _74  and  _75
REMARK   33  A    between atoms: _77  and  _79
REMARK   34  A    between atoms: _79  and  _80
REMARK   35  A    between atoms: _79  and  _82
REMARK   36  A    between atoms: _82  and  _83
REMARK   37  A    between atoms: _86  and  _88
REMARK   38  A    between atoms: _88  and  _89
REMARK   39  A    between atoms: _88  and  _91
REMARK   40  A    between atoms: _94  and  _96
REMARK   41  A    between atoms: _96  and  _97
REMARK   42  A    between atoms: _96  and  _99
REMARK   43  A    between atoms: _99  and  _100
REMARK   44  A    between atoms: _103  and  _105
REMARK   45  A    between atoms: _105  and  _106
REMARK   46  A    between atoms: _105  and  _108
REMARK   47  A    between atoms: _108  and  _109
REMARK   48  A    between atoms: _112  and  _114
REMARK   49  A    between atoms: _114  and  _115
REMARK   50  A    between atoms: _117  and  _119
REMARK   51  A    between atoms: _119  and  _120
REMARK   52  A    between atoms: _119  and  _122
REMARK   53  A    between atoms: _122  and  _123
REMARK   54  A    between atoms: _125  and  _127
REMARK   55  A    between atoms: _127  and  _128
REMARK   56  A    between atoms: _127  and  _130
REMARK   57  A    between atoms: _130  and  _131
REMARK   58  A    between atoms: _133  and  _135
REMARK   59  A    between atoms: _135  and  _136
REMARK   60  A    between atoms: _135  and  _138
REMARK   61  A    between atoms: _138  and  _139
REMARK   62  A    between atoms: _144  and  _146
REMARK   63  A    between atoms: _146  and  _147
REMARK   64  A    between atoms: _146  and  _149
REMARK   65  A    between atoms: _153  and  _154
REMARK   66  A    between atoms: _159  and  _161
REMARK   67  A    between atoms: _161  and  _162
REMARK   68  A    between atoms: _161  and  _164
REMARK   69  A    between atoms: _164  and  _165
REMARK   70  A    between atoms: _170  and  _171
REMARK   71  A    between atoms: _173  and  _175
REMARK   72  A    between atoms: _175  and  _176
REMARK   73  A    between atoms: _175  and  _178
REMARK   74  A    between atoms: _178  and  _179
REMARK   75  A    between atoms: _182  and  _184
REMARK   76  A    between atoms: _184  and  _185
REMARK   77  A    between atoms: _184  and  _187
REMARK   78  A    between atoms: _187  and  _188
REMARK   79  A    between atoms: _188  and  _189
REMARK   80  A    between atoms: _194  and  _196
REMARK   81  A    between atoms: _196  and  _197
REMARK   82  A    between atoms: _199  and  _201
REMARK   83  A    between atoms: _201  and  _202
REMARK   84  A    between atoms: _201  and  _204
REMARK   85  A    between atoms: _204  and  _205
REMARK   86  A    between atoms: _205  and  _206
REMARK   87  A    between atoms: _206  and  _207
REMARK   88  A    between atoms: _207  and  _208
REMARK   89  A    between atoms: _212  and  _214
REMARK   90  A    between atoms: _214  and  _215
REMARK   91  A    between atoms: _214  and  _217
REMARK   92  A    between atoms: _217  and  _218
REMARK   93  A    between atoms: _228  and  _230
REMARK   94  A    between atoms: _230  and  _231
REMARK   95  A    between atoms: _230  and  _233
REMARK   96  A    between atoms: _233  and  _234
REMARK   97  A    between atoms: _237  and  _239
REMARK   98  A    between atoms: _239  and  _240
REMARK   99  A    between atoms: _239  and  _242
REMARK  100  A    between atoms: _242  and  _243
REMARK  101  A    between atoms: _243  and  _244
REMARK  102  A    between atoms: _244  and  _245
REMARK  103  A    between atoms: _245  and  _246
REMARK  104  A    between atoms: _250  and  _252
REMARK  105  A    between atoms: _252  and  _253
REMARK  106  A    between atoms: _252  and  _255
REMARK  107  A    between atoms: _255  and  _256
REMARK  108  A    between atoms: _262  and  _264
REMARK  109  A    between atoms: _264  and  _265
REMARK  110  A    between atoms: _264  and  _267
REMARK  111  A    between atoms: _267  and  _268
REMARK  112  A    between atoms: _274  and  _276
REMARK  113  A    between atoms: _276  and  _277
REMARK  114  A    between atoms: _276  and  _279
REMARK  115  A    between atoms: _279  and  _280
REMARK  116  A    between atoms: _283  and  _285
REMARK  117  A    between atoms: _285  and  _286
REMARK  118  A    between atoms: _285  and  _288
REMARK  119  A    between atoms: _288  and  _289
REMARK  120  A    between atoms: _291  and  _293
REMARK  121  A    between atoms: _293  and  _294
REMARK  122  A    between atoms: _293  and  _296
REMARK  123  A    between atoms: _296  and  _297
REMARK  124  A    between atoms: _307  and  _309
REMARK  125  A    between atoms: _309  and  _310
REMARK  126  A    between atoms: _312  and  _314
REMARK  127  A    between atoms: _314  and  _315
REMARK  128  A    between atoms: _314  and  _317
REMARK  129  A    between atoms: _317  and  _318
REMARK  130  A    between atoms: _321  and  _323
REMARK  131  A    between atoms: _323  and  _324
REMARK  132  A    between atoms: _323  and  _326
REMARK  133  A    between atoms: _326  and  _327
REMARK  134  A    between atoms: _330  and  _332
REMARK  135  A    between atoms: _332  and  _333
REMARK  136  A    between atoms: _335  and  _337
REMARK  137  A    between atoms: _337  and  _338
REMARK  138  A    between atoms: _337  and  _340
REMARK  139  A    between atoms: _340  and  _341
REMARK  140  A    between atoms: _344  and  _346
REMARK  141  A    between atoms: _346  and  _347
REMARK  142  A    between atoms: _350  and  _352
REMARK  143  A    between atoms: _352  and  _353
REMARK  144  A    between atoms: _352  and  _355
REMARK  145  A    between atoms: _355  and  _356
REMARK  146  A    between atoms: _361  and  _362
REMARK  147  A    between atoms: _364  and  _366
REMARK  148  A    between atoms: _366  and  _367
REMARK  149  A    between atoms: _370  and  _372
REMARK  150  A    between atoms: _372  and  _373
REMARK  151  A    between atoms: _372  and  _375
REMARK  152  A    between atoms: _375  and  _376
REMARK  153  A    between atoms: _376  and  _377
REMARK  154  A    between atoms: _380  and  _382
REMARK  155  A    between atoms: _382  and  _383
REMARK  156  A    between atoms: _382  and  _385
REMARK  157  A    between atoms: _385  and  _386
REMARK  158  A    between atoms: _389  and  _391
REMARK  159  A    between atoms: _391  and  _392
REMARK  160  A    between atoms: _395  and  _397
REMARK  161  A    between atoms: _397  and  _398
REMARK  162  A    between atoms: _397  and  _400
REMARK  163  A    between atoms: _400  and  _401
REMARK  164  A    between atoms: _401  and  _402
REMARK  165  A    between atoms: _402  and  _403
REMARK  166  A    between atoms: _412  and  _414
REMARK  167  A    between atoms: _414  and  _415
REMARK  168  A    between atoms: _414  and  _417
REMARK  169  A    between atoms: _417  and  _418
REMARK  170  A    between atoms: _421  and  _423
REMARK  171  A    between atoms: _423  and  _424
REMARK  172  A    between atoms: _426  and  _428
REMARK  173  A    between atoms: _428  and  _429
REMARK  174  A    between atoms: _428  and  _431
REMARK  175  A    between atoms: _431  and  _432
REMARK  176  A    between atoms: _442  and  _444
REMARK  177  A    between atoms: _444  and  _445
REMARK  178  A    between atoms: _444  and  _447
REMARK  179  A    between atoms: _447  and  _448
REMARK  180  A    between atoms: _453  and  _454
REMARK  181  A    between atoms: _456  and  _458
REMARK  182  A    between atoms: _458  and  _459
REMARK  183  A    between atoms: _458  and  _461
REMARK  184  A    between atoms: _461  and  _462
REMARK  185  A    between atoms: _467  and  _468
REMARK  186  A    between atoms: _470  and  _472
REMARK  187  A    between atoms: _472  and  _473
REMARK  188  A    between atoms: _472  and  _475
REMARK  189  A    between atoms: _475  and  _476
REMARK  190  A    between atoms: _476  and  _477
REMARK  191  A    between atoms: _477  and  _478
REMARK  192  A    between atoms: _478  and  _479
REMARK  193  A    between atoms: _483  and  _485
REMARK  194  A    between atoms: _485  and  _486
REMARK  195  A    between atoms: _485  and  _488
REMARK  196  A    between atoms: _488  and  _489
REMARK  197  A    between atoms: _492  and  _494
REMARK  198  A    between atoms: _494  and  _495
REMARK  199  A    between atoms: _494  and  _497
REMARK  200  A    between atoms: _500  and  _502
REMARK  201  A    between atoms: _502  and  _503
REMARK  202  A    between atoms: _502  and  _505
REMARK  203  A    between atoms: _505  and  _506
REMARK  204  A    between atoms: _509  and  _511
REMARK  205  A    between atoms: _511  and  _512
REMARK  206  A    between atoms: _511  and  _514
REMARK  207  A    between atoms: _514  and  _515
REMARK  208  A    between atoms: _517  and  _519
REMARK  209  A    between atoms: _519  and  _520
REMARK  210  A    between atoms: _522  and  _524
REMARK  211  A    between atoms: _524  and  _525
REMARK  212  A    between atoms: _524  and  _527
REMARK  213  A    between atoms: _527  and  _528
REMARK  214  A    between atoms: _531  and  _533
REMARK  215  A    between atoms: _533  and  _534
REMARK  216  A    between atoms: _533  and  _536
REMARK  217  A    between atoms: _536  and  _537
REMARK  218  A    between atoms: _540  and  _542
REMARK  219  A    between atoms: _542  and  _543
REMARK  220  A    between atoms: _542  and  _545
REMARK  221  A    between atoms: _545  and  _546
REMARK  222  A    between atoms: _551  and  _553
REMARK  223  A    between atoms: _553  and  _554
REMARK  224  A    between atoms: _553  and  _556
REMARK  225  A    between atoms: _556  and  _557
REMARK  226  A    between atoms: _560  and  _562
REMARK  227  A    between atoms: _562  and  _563
REMARK  228  A    between atoms: _562  and  _565
REMARK  229  A    between atoms: _565  and  _566
REMARK  230  A    between atoms: _566  and  _567
REMARK  231  A    between atoms: _567  and  _568
REMARK  232  A    between atoms: _577  and  _579
REMARK  233  A    between atoms: _579  and  _580
REMARK  234  A    between atoms: _579  and  _582
REMARK  235  A    between atoms: _582  and  _583
REMARK  236  A    between atoms: _586  and  _588
REMARK  237  A    between atoms: _588  and  _589
REMARK  238  A    between atoms: _588  and  _591
REMARK  239  A    between atoms: _591  and  _592
REMARK  240  A    between atoms: _595  and  _597
REMARK  241  A    between atoms: _597  and  _598
REMARK  242  A    between atoms: _600  and  _602
REMARK  243  A    between atoms: _602  and  _603
REMARK  244  A    between atoms: _602  and  _605
REMARK  245  A    between atoms: _605  and  _606
REMARK  246  A    between atoms: _606  and  _607
REMARK  247  A    between atoms: _607  and  _608
REMARK  248  A    between atoms: _617  and  _619
REMARK  249  A    between atoms: _619  and  _620
REMARK  250  A    between atoms: _619  and  _622
REMARK  251  A    between atoms: _622  and  _623
REMARK  252  A    between atoms: _629  and  _631
REMARK  253  A    between atoms: _631  and  _632
REMARK  254  A    between atoms: _635  and  _637
REMARK  255  A    between atoms: _637  and  _638
REMARK  256  A    between atoms: _637  and  _640
REMARK  257  A    between atoms: _640  and  _641
REMARK  258  A    between atoms: _644  and  _646
REMARK  259  A    between atoms: _646  and  _647
REMARK  260  A    between atoms: _646  and  _649
REMARK  261  A    between atoms: _649  and  _650
REMARK  262  A    between atoms: _652  and  _654
REMARK  263  A    between atoms: _654  and  _655
REMARK  264  A    between atoms: _654  and  _657
REMARK  265  A    between atoms: _657  and  _658
REMARK  266  A    between atoms: _658  and  _659
REMARK  267  A    between atoms: _664  and  _666
REMARK  268  A    between atoms: _666  and  _667
REMARK  269  A    between atoms: _666  and  _669
REMARK  270  A    between atoms: _669  and  _670
REMARK  271  A    between atoms: _672  and  _674
REMARK  272  A    between atoms: _674  and  _675
REMARK  273  A    between atoms: _674  and  _677
REMARK  274  A    between atoms: _677  and  _678
REMARK  275  A    between atoms: _680  and  _682
REMARK  276  A    between atoms: _682  and  _683
REMARK  277  A    between atoms: _682  and  _685
REMARK  278  A    between atoms: _685  and  _686
REMARK  279  A    between atoms: _689  and  _691
REMARK  280  A    between atoms: _691  and  _692
REMARK  281  A    between atoms: _691  and  _694
REMARK  282  A    between atoms: _697  and  _699
REMARK  283  A    between atoms: _699  and  _700
REMARK  284  A    between atoms: _702  and  _704
REMARK  285  A    between atoms: _704  and  _705
REMARK  286  A    between atoms: _708  and  _710
REMARK  287  A    between atoms: _710  and  _711
REMARK  288  A    between atoms: _710  and  _713
REMARK  289  A    between atoms: _716  and  _718
REMARK  290  A    between atoms: _718  and  _719
REMARK  291  A    between atoms: _718  and  _721
REMARK  292  A    between atoms: _721  and  _722
REMARK  293  A    between atoms: _722  and  _723
REMARK  294  A    between atoms: _725  and  _727
REMARK  295  A    between atoms: _727  and  _728
REMARK  296  A    between atoms: _727  and  _730
REMARK  297  A    between atoms: _730  and  _731
REMARK  298  A    between atoms: _731  and  _732
REMARK                            x       y       z     vdW  Elec       q    Type
REMARK                         _______ _______ _______ _____ _____    ______ ____
ROOT
ATOM      1  CG  LYS A   1     -10.049   7.995  32.194  0.00  0.00    -0.000 C 
ENDROOT
BRANCH   1   2
ATOM      2  CB  LYS A   1     -10.399   9.303  32.873  0.00  0.00    +0.025 C 
BRANCH   2   3
ATOM      3  CA  LYS A   1      -9.652  10.502  32.295  0.00  0.00    +0.133 C 
BRANCH   3   4
ATOM      4  N   LYS A   1     -10.006  10.668  30.879  0.00  0.00    -0.239 NA
ATOM      5  H   LYS A   1      -9.282  10.496  30.152  0.00  0.00    +0.142 HD
ENDBRANCH   3   4
BRANCH   3   6
ATOM      6  C   LYS A   1      -8.150  10.275  32.507  0.00  0.00    +0.224 C 
ATOM      7  O   LYS A   1      -7.410  10.043  31.561  0.00  0.00    -0.287 OA
ENDBRANCH   3   6
ENDBRANCH   2   3
ENDBRANCH   1   2
BRANCH   1   8
ATOM      8  CD  LYS A   1     -10.965   6.871  32.655  0.00  0.00    -0.024 C 
BRANCH   8   9
ATOM      9  CE  LYS A   1     -10.784   5.625  31.819  0.00  0.00    -0.086 C 
BRANCH   9  10
ATOM     10  NZ  LYS A   1     -11.171   5.808  30.388  0.00  0.00    +0.380 N 
ATOM     11  HZ1 LYS A   1     -12.174   6.078  30.333  0.00  0.00    -0.089 HD
ATOM     12  HZ2 LYS A   1     -10.586   6.556  29.965  0.00  0.00    -0.089 HD
ATOM     13  HZ3 LYS A   1     -11.022   4.917  29.873  0.00  0.00    -0.089 HD
ENDBRANCH   9  10
ENDBRANCH   8   9
ENDBRANCH   1   8
TORSDOF 7
REMARK  Name = ../refined-set-2016/2vkm/2vkm_pocket.pdb
REMARK  298 active torsions:
REMARK  status: ('A' for Active; 'I' for Inactive)
REMARK    1  A    between atoms: _1  and  _3
REMARK    2  A    between atoms: _3  and  _4
REMARK    3  A    between atoms: _6  and  _8
REMARK    4  A    between atoms: _8  and  _9
REMARK    5  A    between atoms: _8  and  _11
REMARK    6  A    between atoms: _11  and  _12
REMARK    7  A    between atoms: _12  and  _13
REMARK    8  A    between atoms: _13  and  _14
REMARK    9  A    between atoms: _14  and  _15
REMARK   10  A    between atoms: _19  and  _21
REMARK   11  A    between atoms: _21  and  _22
REMARK   12  A    between atoms: _21  and  _24
REMARK   13  A    between atoms: _24  and  _25
REMARK   14  A    between atoms: _27  and  _29
REMARK   15  A    between atoms: _29  and  _30
REMARK   16  A    between atoms: _32  and  _34
REMARK   17  A    between atoms: _34  and  _35
REMARK   18  A    between atoms: _34  and  _37
REMARK   19  A    between atoms: _37  and  _38
REMARK   20  A    between atoms: _38  and  _39
REMARK   21  A    between atoms: _44  and  _46
REMARK   22  A    between atoms: _46  and  _47
REMARK   23  A    between atoms: _49  and  _51
REMARK   24  A    between atoms: _51  and  _52
REMARK   25  A    between atoms: _51  and  _54
REMARK   26  A    between atoms: _54  and  _55
REMARK   27  A    between atoms: _60  and  _61
REMARK   28  A    between atoms: _63  and  _65
REMARK   29  A    between atoms: _65  and  _66
REMARK   30  A    between atoms: _65  and  _68
REMARK   31  A    between atoms: _68  and  _69
REMARK   32  A    between atoms: _74  and  _75
REMARK   33  A    between atoms: _77  and  _79
REMARK   34  A    between atoms: _79  and  _80
REMARK   35  A    between atoms: _79  and  _82
REMARK   36  A    between atoms: _82  and  _83
REMARK   37  A    between atoms: _86  and  _88
REMARK   38  A    between atoms: _88  and  _89
REMARK   39  A    between atoms: _88  and  _91
REMARK   40  A    between atoms: _94  and  _96
REMARK   41  A    between atoms: _96  and  _97
REMARK   42  A    between atoms: _96  and  _99
REMARK   43  A    between atoms: _99  and  _100
REMARK   44  A    between atoms: _103  and  _105
REMARK   45  A    between atoms: _105  and  _106
REMARK   46  A    between atoms: _105  and  _108
REMARK   47  A    between atoms: _108  and  _109
REMARK   48  A    between atoms: _112  and  _114
REMARK   49  A    between atoms: _114  and  _115
REMARK   50  A    between atoms: _117  and  _119
REMARK   51  A    between atoms: _119  and  _120
REMARK   52  A    between atoms: _119  and  _122
REMARK   53  A    between atoms: _122  and  _123
REMARK   54  A    between atoms: _125  and  _127
REMARK   55  A    between atoms: _127  and  _128
REMARK   56  A    between atoms: _127  and  _130
REMARK   57  A    between atoms: _130  and  _131
REMARK   58  A    between atoms: _133  and  _135
REMARK   59  A    between atoms: _135  and  _136
REMARK   60  A    between atoms: _135  and  _138
REMARK   61  A    between atoms: _138  and  _139
REMARK   62  A    between atoms: _144  and  _146
REMARK   63  A    between atoms: _146  and  _147
REMARK   64  A    between atoms: _146  and  _149
REMARK   65  A    between atoms: _153  and  _154
REMARK   66  A    between atoms: _159  and  _161
REMARK   67  A    between atoms: _161  and  _162
REMARK   68  A    between atoms: _161  and  _164
REMARK   69  A    between atoms: _164  and  _165
REMARK   70  A    between atoms: _170  and  _171
REMARK   71  A    between atoms: _173  and  _175
REMARK   72  A    between atoms: _175  and  _176
REMARK   73  A    between atoms: _175  and  _178
REMARK   74  A    between atoms: _178  and  _179
REMARK   75  A    between atoms: _182  and  _184
REMARK   76  A    between atoms: _184  and  _185
REMARK   77  A    between atoms: _184  and  _187
REMARK   78  A    between atoms: _187  and  _188
REMARK   79  A    between atoms: _188  and  _189
REMARK   80  A    between atoms: _194  and  _196
REMARK   81  A    between atoms: _196  and  _197
REMARK   82  A    between atoms: _199  and  _201
REMARK   83  A    between atoms: _201  and  _202
REMARK   84  A    between atoms: _201  and  _204
REMARK   85  A    between atoms: _204  and  _205
REMARK   86  A    between atoms: _205  and  _206
REMARK   87  A    between atoms: _206  and  _207
REMARK   88  A    between atoms: _207  and  _208
REMARK   89  A    between atoms: _212  and  _214
REMARK   90  A    between atoms: _214  and  _215
REMARK   91  A    between atoms: _214  and  _217
REMARK   92  A    between atoms: _217  and  _218
REMARK   93  A    between atoms: _228  and  _230
REMARK   94  A    between atoms: _230  and  _231
REMARK   95  A    between atoms: _230  and  _233
REMARK   96  A    between atoms: _233  and  _234
REMARK   97  A    between atoms: _237  and  _239
REMARK   98  A    between atoms: _239  and  _240
REMARK   99  A    between atoms: _239  and  _242
REMARK  100  A    between atoms: _242  and  _243
REMARK  101  A    between atoms: _243  and  _244
REMARK  102  A    between atoms: _244  and  _245
REMARK  103  A    between atoms: _245  and  _246
REMARK  104  A    between atoms: _250  and  _252
REMARK  105  A    between atoms: _252  and  _253
REMARK  106  A    between atoms: _252  and  _255
REMARK  107  A    between atoms: _255  and  _256
REMARK  108  A    between atoms: _262  and  _264
REMARK  109  A    between atoms: _264  and  _265
REMARK  110  A    between atoms: _264  and  _267
REMARK  111  A    between atoms: _267  and  _268
REMARK  112  A    between atoms: _274  and  _276
REMARK  113  A    between atoms: _276  and  _277
REMARK  114  A    between atoms: _276  and  _279
REMARK  115  A    between atoms: _279  and  _280
REMARK  116  A    between atoms: _283  and  _285
REMARK  117  A    between atoms: _285  and  _286
REMARK  118  A    between atoms: _285  and  _288
REMARK  119  A    between atoms: _288  and  _289
REMARK  120  A    between atoms: _291  and  _293
REMARK  121  A    between atoms: _293  and  _294
REMARK  122  A    between atoms: _293  and  _296
REMARK  123  A    between atoms: _296  and  _297
REMARK  124  A    between atoms: _307  and  _309
REMARK  125  A    between atoms: _309  and  _310
REMARK  126  A    between atoms: _312  and  _314
REMARK  127  A    between atoms: _314  and  _315
REMARK  128  A    between atoms: _314  and  _317
REMARK  129  A    between atoms: _317  and  _318
REMARK  130  A    between atoms: _321  and  _323
REMARK  131  A    between atoms: _323  and  _324
REMARK  132  A    between atoms: _323  and  _326
REMARK  133  A    between atoms: _326  and  _327
REMARK  134  A    between atoms: _330  and  _332
REMARK  135  A    between atoms: _332  and  _333
REMARK  136  A    between atoms: _335  and  _337
REMARK  137  A    between atoms: _337  and  _338
REMARK  138  A    between atoms: _337  and  _340
REMARK  139  A    between atoms: _340  and  _341
REMARK  140  A    between atoms: _344  and  _346
REMARK  141  A    between atoms: _346  and  _347
REMARK  142  A    between atoms: _350  and  _352
REMARK  143  A    between atoms: _352  and  _353
REMARK  144  A    between atoms: _352  and  _355
REMARK  145  A    between atoms: _355  and  _356
REMARK  146  A    between atoms: _361  and  _362
REMARK  147  A    between atoms: _364  and  _366
REMARK  148  A    between atoms: _366  and  _367
REMARK  149  A    between atoms: _370  and  _372
REMARK  150  A    between atoms: _372  and  _373
REMARK  151  A    between atoms: _372  and  _375
REMARK  152  A    between atoms: _375  and  _376
REMARK  153  A    between atoms: _376  and  _377
REMARK  154  A    between atoms: _380  and  _382
REMARK  155  A    between atoms: _382  and  _383
REMARK  156  A    between atoms: _382  and  _385
REMARK  157  A    between atoms: _385  and  _386
REMARK  158  A    between atoms: _389  and  _391
REMARK  159  A    between atoms: _391  and  _392
REMARK  160  A    between atoms: _395  and  _397
REMARK  161  A    between atoms: _397  and  _398
REMARK  162  A    between atoms: _397  and  _400
REMARK  163  A    between atoms: _400  and  _401
REMARK  164  A    between atoms: _401  and  _402
REMARK  165  A    between atoms: _402  and  _403
REMARK  166  A    between atoms: _412  and  _414
REMARK  167  A    between atoms: _414  and  _415
REMARK  168  A    between atoms: _414  and  _417
REMARK  169  A    between atoms: _417  and  _418
REMARK  170  A    between atoms: _421  and  _423
REMARK  171  A    between atoms: _423  and  _424
REMARK  172  A    between atoms: _426  and  _428
REMARK  173  A    between atoms: _428  and  _429
REMARK  174  A    between atoms: _428  and  _431
REMARK  175  A    between atoms: _431  and  _432
REMARK  176  A    between atoms: _442  and  _444
REMARK  177  A    between atoms: _444  and  _445
REMARK  178  A    between atoms: _444  and  _447
REMARK  179  A    between atoms: _447  and  _448
REMARK  180  A    between atoms: _453  and  _454
REMARK  181  A    between atoms: _456  and  _458
REMARK  182  A    between atoms: _458  and  _459
REMARK  183  A    between atoms: _458  and  _461
REMARK  184  A    between atoms: _461  and  _462
REMARK  185  A    between atoms: _467  and  _468
REMARK  186  A    between atoms: _470  and  _472
REMARK  187  A    between atoms: _472  and  _473
REMARK  188  A    between atoms: _472  and  _475
REMARK  189  A    between atoms: _475  and  _476
REMARK  190  A    between atoms: _476  and  _477
REMARK  191  A    between atoms: _477  and  _478
REMARK  192  A    between atoms: _478  and  _479
REMARK  193  A    between atoms: _483  and  _485
REMARK  194  A    between atoms: _485  and  _486
REMARK  195  A    between atoms: _485  and  _488
REMARK  196  A    between atoms: _488  and  _489
REMARK  197  A    between atoms: _492  and  _494
REMARK  198  A    between atoms: _494  and  _495
REMARK  199  A    between atoms: _494  and  _497
REMARK  200  A    between atoms: _500  and  _502
REMARK  201  A    between atoms: _502  and  _503
REMARK  202  A    between atoms: _502  and  _505
REMARK  203  A    between atoms: _505  and  _506
REMARK  204  A    between atoms: _509  and  _511
REMARK  205  A    between atoms: _511  and  _512
REMARK  206  A    between atoms: _511  and  _514
REMARK  207  A    between atoms: _514  and  _515
REMARK  208  A    between atoms: _517  and  _519
REMARK  209  A    between atoms: _519  and  _520
REMARK  210  A    between atoms: _522  and  _524
REMARK  211  A    between atoms: _524  and  _525
REMARK  212  A    between atoms: _524  and  _527
REMARK  213  A    between atoms: _527  and  _528
REMARK  214  A    between atoms: _531  and  _533
REMARK  215  A    between atoms: _533  and  _534
REMARK  216  A    between atoms: _533  and  _536
REMARK  217  A    between atoms: _536  and  _537
REMARK  218  A    between atoms: _540  and  _542
REMARK  219  A    between atoms: _542  and  _543
REMARK  220  A    between atoms: _542  and  _545
REMARK  221  A    between atoms: _545  and  _546
REMARK  222  A    between atoms: _551  and  _553
REMARK  223  A    between atoms: _553  and  _554
REMARK  224  A    between atoms: _553  and  _556
REMARK  225  A    between atoms: _556  and  _557
REMARK  226  A    between atoms: _560  and  _562
REMARK  227  A    between atoms: _562  and  _563
REMARK  228  A    between atoms: _562  and  _565
REMARK  229  A    between atoms: _565  and  _566
REMARK  230  A    between atoms: _566  and  _567
REMARK  231  A    between atoms: _567  and  _568
REMARK  232  A    between atoms: _577  and  _579
REMARK  233  A    between atoms: _579  and  _580
REMARK  234  A    between atoms: _579  and  _582
REMARK  235  A    between atoms: _582  and  _583
REMARK  236  A    between atoms: _586  and  _588
REMARK  237  A    between atoms: _588  and  _589
REMARK  238  A    between atoms: _588  and  _591
REMARK  239  A    between atoms: _591  and  _592
REMARK  240  A    between atoms: _595  and  _597
REMARK  241  A    between atoms: _597  and  _598
REMARK  242  A    between atoms: _600  and  _602
REMARK  243  A    between atoms: _602  and  _603
REMARK  244  A    between atoms: _602  and  _605
REMARK  245  A    between atoms: _605  and  _606
REMARK  246  A    between atoms: _606  and  _607
REMARK  247  A    between atoms: _607  and  _608
REMARK  248  A    between atoms: _617  and  _619
REMARK  249  A    between atoms: _619  and  _620
REMARK  250  A    between atoms: _619  and  _622
REMARK  251  A    between atoms: _622  and  _623
REMARK  252  A    between atoms: _629  and  _631
REMARK  253  A    between atoms: _631  and  _632
REMARK  254  A    between atoms: _635  and  _637
REMARK  255  A    between atoms: _637  and  _638
REMARK  256  A    between atoms: _637  and  _640
REMARK  257  A    between atoms: _640  and  _641
REMARK  258  A    between atoms: _644  and  _646
REMARK  259  A    between atoms: _646  and  _647
REMARK  260  A    between atoms: _646  and  _649
REMARK  261  A    between atoms: _649  and  _650
REMARK  262  A    between atoms: _652  and  _654
REMARK  263  A    between atoms: _654  and  _655
REMARK  264  A    between atoms: _654  and  _657
REMARK  265  A    between atoms: _657  and  _658
REMARK  266  A    between atoms: _658  and  _659
REMARK  267  A    between atoms: _664  and  _666
REMARK  268  A    between atoms: _666  and  _667
REMARK  269  A    between atoms: _666  and  _669
REMARK  270  A    between atoms: _669  and  _670
REMARK  271  A    between atoms: _672  and  _674
REMARK  272  A    between atoms: _674  and  _675
REMARK  273  A    between atoms: _674  and  _677
REMARK  274  A    between atoms: _677  and  _678
REMARK  275  A    between atoms: _680  and  _682
REMARK  276  A    between atoms: _682  and  _683
REMARK  277  A    between atoms: _682  and  _685
REMARK  278  A    between atoms: _685  and  _686
REMARK  279  A    between atoms: _689  and  _691
REMARK  280  A    between atoms: _691  and  _692
REMARK  281  A    between atoms: _691  and  _694
REMARK  282  A    between atoms: _697  and  _699
REMARK  283  A    between atoms: _699  and  _700
REMARK  284  A    between atoms: _702  and  _704
REMARK  285  A    between atoms: _704  and  _705
REMARK  286  A    between atoms: _708  and  _710
REMARK  287  A    between atoms: _710  and  _711
REMARK  288  A    between atoms: _710  and  _713
REMARK  289  A    between atoms: _716  and  _718
REMARK  290  A    between atoms: _718  and  _719
REMARK  291  A    between atoms: _718  and  _721
REMARK  292  A    between atoms: _721  and  _722
REMARK  293  A    between atoms: _722  and  _723
REMARK  294  A    between atoms: _725  and  _727
REMARK  295  A    between atoms: _727  and  _728
REMARK  296  A    between atoms: _727  and  _730
REMARK  297  A    between atoms: _730  and  _731
REMARK  298  A    between atoms: _731  and  _732
REMARK                            x       y       z     vdW  Elec       q    Type
REMARK                         _______ _______ _______ _____ _____    ______ ____
ROOT
ATOM      1  CA  THR A   7       3.545  -1.119  31.811  0.00  0.00    +0.176 C 
ENDROOT
BRANCH   1   2
ATOM      2  C   THR A   7       3.913   0.345  31.594  0.00  0.00    +0.243 C 
ATOM      3  O   THR A   7       4.702   0.918  32.348  0.00  0.00    -0.273 OA
ATOM      4  N   ASN A   8       3.327   0.929  30.555  0.00  0.00    -0.297 N 
ATOM      5  H   ASN A   8       2.609   0.392  30.028  0.00  0.00    +0.150 HD
BRANCH   4   6
ATOM      6  CA  ASN A   8       3.637   2.281  30.115  0.00  0.00    +0.158 C 
BRANCH   6   7
ATOM      7  C   ASN A   8       3.007   3.479  30.752  0.00  0.00    +0.241 C 
ATOM      8  O   ASN A   8       2.080   3.388  31.550  0.00  0.00    -0.273 OA
ATOM      9  N   LEU A   9       3.566   4.619  30.365  0.00  0.00    -0.297 N 
ATOM     10  H   LEU A   9       4.427   4.580  29.783  0.00  0.00    +0.150 HD
BRANCH   9  11
ATOM     11  CA  LEU A   9       3.028   5.912  30.719  0.00  0.00    +0.149 C 
BRANCH  11  12
ATOM     12  C   LEU A   9       2.279   6.089  29.398  0.00  0.00    +0.241 C 
ATOM     13  N   ARG A  10       0.958   6.026  29.457  0.00  0.00    -0.297 N 
ATOM     14  H   ARG A  10       0.493   5.859  30.372  0.00  0.00    +0.150 HD
ATOM     15  O   LEU A   9       2.896   6.233  28.331  0.00  0.00    -0.273 OA
BRANCH  13  16
ATOM     16  CA  ARG A  10       0.151   6.187  28.264  0.00  0.00    +0.149 C 
BRANCH  16  17
ATOM     17  C   ARG A  10      -0.541   7.544  28.299  0.00  0.00    +0.241 C 
ATOM     18  O   ARG A  10      -1.088   7.959  29.324  0.00  0.00    -0.273 OA
ATOM     19  N   LEU A  11      -0.500   8.231  27.161  0.00  0.00    -0.298 N 
ATOM     20  H   LEU A  11      -0.051   7.792  26.332  0.00  0.00    +0.150 HD
BRANCH  19  21
ATOM     21  CA  LEU A  11      -1.054   9.569  27.023  0.00  0.00    +0.137 C 
BRANCH  21  22
ATOM     22  C   LEU A  11      -2.063   9.722  25.885  0.00  0.00    +0.227 C 
ATOM     23  O   LEU A  11      -1.933   9.098  24.838  0.00  0.00    -0.286 OA
ENDBRANCH  21  22
BRANCH  21  24
ATOM     24  CB  LEU A  11       0.087  10.551  26.765  0.00  0.00    +0.028 C 
BRANCH  24  25
ATOM     25  CG  LEU A  11       1.234  10.559  27.786  0.00  0.00    +0.002 C 
ATOM     26  CD2 LEU A  11       0.770  11.272  29.035  0.00  0.00    +0.000 C 
ATOM     27  CD1 LEU A  11       2.495  11.216  27.178  0.00  0.00    +0.000 C 
ENDBRANCH  24  25
ENDBRANCH  21  24
ENDBRANCH  19  21
ENDBRANCH  16  17
BRANCH  16  28
ATOM     28  CB  ARG A  10      -0.854   5.043  28.170  0.00  0.00    +0.033 C 
BRANCH  28  29
ATOM     29  CG  ARG A  10      -0.186   3.690  27.922  0.00  0.00    +0.045 C 
BRANCH  29  30
ATOM     30  CD  ARG A  10      -0.988   2.866  26.897  0.00  0.00    +0.174 C 
BRANCH  30  31
ATOM     31  NE  ARG A  10      -2.299   2.620  27.417  0.00  0.00    -0.265 N 
ATOM     32  HE  ARG A  10      -2.375   2.437  28.438  0.00  0.00    +0.259 HD
ATOM     33  CZ  ARG A  10      -3.426   2.604  26.716  0.00  0.00    +0.342 C 
ATOM     34  NH2 ARG A  10      -4.548   2.379  27.371  0.00  0.00    -0.292 N 
ATOM     35 HH21 ARG A  10      -4.528   2.222  28.399  0.00  0.00    +0.255 HD
ATOM     36 HH22 ARG A  10      -5.453   2.358  26.860  0.00  0.00    +0.255 HD
ATOM     37  NH1 ARG A  10      -3.448   2.792  25.399  0.00  0.00    -0.292 N 
ATOM     38 HH11 ARG A  10      -4.352   2.772  24.886  0.00  0.00    +0.255 HD
ATOM     39 HH12 ARG A  10      -2.561   2.959  24.883  0.00  0.00    +0.255 HD
ENDBRANCH  30  31
ENDBRANCH  29  30
ENDBRANCH  28  29
ENDBRANCH  16  28
ENDBRANCH  13  16
ENDBRANCH  11  12
BRANCH  11  40
ATOM     40  CB  LEU A   9       4.108   6.991  30.812  0.00  0.00    +0.029 C 
BRANCH  40  41
ATOM     41  CG  LEU A   9       3.728   8.330  31.460  0.00  0.00    +0.002 C 
ATOM     42  CD2 LEU A   9       2.234   8.523  31.514  0.00  0.00    +0.000 C 
ATOM     43  CD1 LEU A   9       4.392   9.457  30.702  0.00  0.00    +0.000 C 
ENDBRANCH  40  41
ENDBRANCH  11  40
ENDBRANCH   9  11
ENDBRANCH   6   7
BRANCH   6  44
ATOM     44  CB  ASN A   8       3.342   2.403  28.607  0.00  0.00    +0.114 C 
BRANCH  44  45
ATOM     45  CG  ASN A   8       4.192   1.468  27.772  0.00  0.00    +0.222 C 
ATOM     46  OD1 ASN A   8       5.036   0.739  28.306  0.00  0.00    -0.275 OA
ATOM     47  ND2 ASN A   8       3.987   1.489  26.462  0.00  0.00    -0.329 N 
ATOM     48 HD21 ASN A   8       3.265   2.120  26.059  0.00  0.00    +0.145 HD
ATOM     49 HD22 ASN A   8       4.548   0.875  25.838  0.00  0.00    +0.145 HD
ENDBRANCH  44  45
ENDBRANCH   6  44
ENDBRANCH   4   6
ENDBRANCH   1   2
BRANCH   1  52
ATOM     50  C   THR A   6       1.379  -0.843  32.864  0.00  0.00    +0.243 C 
ATOM     51  O   THR A   6       1.843  -0.081  33.715  0.00  0.00    -0.273 OA
ATOM     52  N   THR A   7       2.115  -1.375  31.899  0.00  0.00    -0.295 N 
ATOM     53  H   THR A   7       1.662  -1.987  31.191  0.00  0.00    +0.150 HD
BRANCH  50  54
ATOM     54  CA  THR A   6      -0.107  -1.231  32.854  0.00  0.00    +0.176 C 
BRANCH  54  56
ATOM     55  C   GLY A   5      -0.944  -2.909  34.407  0.00  0.00    +0.243 C 
ATOM     56  N   THR A   6      -0.535  -1.666  34.172  0.00  0.00    -0.295 N 
ATOM     57  H   THR A   6      -0.521  -0.984  34.957  0.00  0.00    +0.150 HD
ATOM     58  O   GLY A   5      -1.020  -3.771  33.533  0.00  0.00    -0.273 OA
BRANCH  55  59
ATOM     59  CA  GLY A   5      -1.340  -3.225  35.841  0.00  0.00    +0.176 C 
BRANCH  59  62
ATOM     60  C   SER A   4      -0.103  -1.925  37.474  0.00  0.00    +0.243 C 
ATOM     61  O   SER A   4       0.826  -2.722  37.478  0.00  0.00    -0.273 OA
ATOM     62  N   GLY A   5      -1.193  -2.082  36.722  0.00  0.00    -0.295 N 
ATOM     63  H   GLY A   5      -1.952  -1.372  36.768  0.00  0.00    +0.150 HD
BRANCH  60  64
ATOM     64  CA  SER A   4      -0.046  -0.693  38.380  0.00  0.00    +0.178 C 
BRANCH  64  66
ATOM     65  C   ASP A   3      -1.333   0.916  37.119  0.00  0.00    +0.241 C 
ATOM     66  N   SER A   4      -1.194   0.181  38.218  0.00  0.00    -0.295 N 
ATOM     67  H   SER A   4      -1.913   0.232  38.968  0.00  0.00    +0.150 HD
ATOM     68  O   ASP A   3      -0.537   0.867  36.181  0.00  0.00    -0.273 OA
BRANCH  65  69
ATOM     69  CA  ASP A   3      -2.564   1.810  37.038  0.00  0.00    +0.160 C 
BRANCH  69  72
ATOM     70  C   VAL A   2      -3.200   3.865  38.189  0.00  0.00    +0.241 C 
ATOM     71  O   VAL A   2      -4.109   3.302  38.823  0.00  0.00    -0.273 OA
ATOM     72  N   ASP A   3      -2.354   3.215  37.393  0.00  0.00    -0.297 N 
ATOM     73  H   ASP A   3      -1.525   3.716  37.015  0.00  0.00    +0.150 HD
BRANCH  70  74
ATOM     74  CA  VAL A   2      -2.964   5.362  38.340  0.00  0.00    +0.148 C 
BRANCH  74  76
ATOM     75  C   ILE A   1      -4.327   6.439  36.634  0.00  0.00    +0.238 C 
ATOM     76  N   VAL A   2      -4.214   5.934  37.861  0.00  0.00    -0.297 N 
ATOM     77  H   VAL A   2      -5.040   5.949  38.493  0.00  0.00    +0.150 HD
ATOM     78  O   ILE A   1      -3.380   6.498  35.838  0.00  0.00    -0.274 OA
BRANCH  75  79
ATOM     79  CA  ILE A   1      -5.711   6.958  36.249  0.00  0.00    +0.145 C 
BRANCH  79  80
ATOM     80  CB  ILE A   1      -6.579   5.730  35.842  0.00  0.00    +0.025 C 
ATOM     81  CG2 ILE A   1      -7.934   6.208  35.297  0.00  0.00    +0.002 C 
BRANCH  80  82
ATOM     82  CG1 ILE A   1      -5.863   4.919  34.748  0.00  0.00    +0.002 C 
ATOM     83  CD1 ILE A   1      -6.575   3.568  34.359  0.00  0.00    +0.000 C 
ENDBRANCH  80  82
ENDBRANCH  79  80
BRANCH  79  84
ATOM     84  N   ILE A   1      -5.702   7.957  35.181  0.00  0.00    -0.238 NA
ATOM     85  H   ILE A   1      -5.173   7.767  34.306  0.00  0.00    +0.142 HD
ENDBRANCH  79  84
ENDBRANCH  75  79
ENDBRANCH  74  76
BRANCH  74  86
ATOM     86  CB  VAL A   2      -2.694   5.709  39.810  0.00  0.00    +0.027 C 
ATOM     87  CG2 VAL A   2      -1.330   5.141  40.215  0.00  0.00    +0.002 C 
ATOM     88  CG1 VAL A   2      -2.739   7.239  40.011  0.00  0.00    +0.002 C 
ENDBRANCH  74  86
ENDBRANCH  70  74
ENDBRANCH  69  72
BRANCH  69  89
ATOM     89  CB  ASP A   3      -3.107   1.839  35.612  0.00  0.00    +0.143 C 
BRANCH  89  90
ATOM     90  CG  ASP A   3      -3.524   0.498  35.093  0.00  0.00    +0.367 C 
ATOM     91  OD2 ASP A   3      -3.277  -0.550  35.717  0.00  0.00    -0.246 OA
ATOM     92  OD1 ASP A   3      -4.121   0.518  34.010  0.00  0.00    -0.246 OA
ENDBRANCH  89  90
ENDBRANCH  69  89
ENDBRANCH  65  69
ENDBRANCH  64  66
BRANCH  64  93
ATOM     93  CB  SER A   4       0.081  -1.156  39.843  0.00  0.00    +0.166 C 
BRANCH  93  94
ATOM     94  OG  SER A   4      -0.899  -2.126  40.184  0.00  0.00    -0.380 OA
ATOM     95  H   SER A   4      -0.795  -2.918  39.599  0.00  0.00    +0.211 HD
ENDBRANCH  93  94
ENDBRANCH  64  93
ENDBRANCH  60  64
ENDBRANCH  59  62
ENDBRANCH  55  59
ENDBRANCH  54  56
BRANCH  54  96
ATOM     96  CB  THR A   6      -0.938  -0.039  32.356  0.00  0.00    +0.137 C 
ATOM     97  CG2 THR A   6      -0.333   0.518  31.053  0.00  0.00    +0.034 C 
BRANCH  96  98
ATOM     98  OG1 THR A   6      -2.285  -0.470  32.106  0.00  0.00    -0.382 OA
ATOM     99  HG1 THR A   6      -2.678  -0.822  32.944  0.00  0.00    +0.210 HD
ENDBRANCH  96  98
ENDBRANCH  54  96
ENDBRANCH  50  54
ENDBRANCH   1  52
BRANCH   1 100
ATOM    100  CB  THR A   7       4.192  -1.899  30.636  0.00  0.00    +0.137 C 
ATOM    101  CG2 THR A   7       5.711  -1.889  30.767  0.00  0.00    +0.034 C 
BRANCH 100 102
ATOM    102  OG1 THR A   7       3.742  -3.257  30.636  0.00  0.00    -0.382 OA
ATOM    103  HG1 THR A   7       4.162  -3.743  29.882  0.00  0.00    +0.210 HD
ENDBRANCH 100 102
ENDBRANCH   1 100
TORSDOF 43
REMARK  Name = ../refined-set-2016/2vkm/2vkm_pocket.pdb
REMARK  298 active torsions:
REMARK  status: ('A' for Active; 'I' for Inactive)
REMARK    1  A    between atoms: _1  and  _3
REMARK    2  A    between atoms: _3  and  _4
REMARK    3  A    between atoms: _6  and  _8
REMARK    4  A    between atoms: _8  and  _9
REMARK    5  A    between atoms: _8  and  _11
REMARK    6  A    between atoms: _11  and  _12
REMARK    7  A    between atoms: _12  and  _13
REMARK    8  A    between atoms: _13  and  _14
REMARK    9  A    between atoms: _14  and  _15
REMARK   10  A    between atoms: _19  and  _21
REMARK   11  A    between atoms: _21  and  _22
REMARK   12  A    between atoms: _21  and  _24
REMARK   13  A    between atoms: _24  and  _25
REMARK   14  A    between atoms: _27  and  _29
REMARK   15  A    between atoms: _29  and  _30
REMARK   16  A    between atoms: _32  and  _34
REMARK   17  A    between atoms: _34  and  _35
REMARK   18  A    between atoms: _34  and  _37
REMARK   19  A    between atoms: _37  and  _38
REMARK   20  A    between atoms: _38  and  _39
REMARK   21  A    between atoms: _44  and  _46
REMARK   22  A    between atoms: _46  and  _47
REMARK   23  A    between atoms: _49  and  _51
REMARK   24  A    between atoms: _51  and  _52
REMARK   25  A    between atoms: _51  and  _54
REMARK   26  A    between atoms: _54  and  _55
REMARK   27  A    between atoms: _60  and  _61
REMARK   28  A    between atoms: _63  and  _65
REMARK   29  A    between atoms: _65  and  _66
REMARK   30  A    between atoms: _65  and  _68
REMARK   31  A    between atoms: _68  and  _69
REMARK   32  A    between atoms: _74  and  _75
REMARK   33  A    between atoms: _77  and  _79
REMARK   34  A    between atoms: _79  and  _80
REMARK   35  A    between atoms: _79  and  _82
REMARK   36  A    between atoms: _82  and  _83
REMARK   37  A    between atoms: _86  and  _88
REMARK   38  A    between atoms: _88  and  _89
REMARK   39  A    between atoms: _88  and  _91
REMARK   40  A    between atoms: _94  and  _96
REMARK   41  A    between atoms: _96  and  _97
REMARK   42  A    between atoms: _96  and  _99
REMARK   43  A    between atoms: _99  and  _100
REMARK   44  A    between atoms: _103  and  _105
REMARK   45  A    between atoms: _105  and  _106
REMARK   46  A    between atoms: _105  and  _108
REMARK   47  A    between atoms: _108  and  _109
REMARK   48  A    between atoms: _112  and  _114
REMARK   49  A    between atoms: _114  and  _115
REMARK   50  A    between atoms: _117  and  _119
REMARK   51  A    between atoms: _119  and  _120
REMARK   52  A    between atoms: _119  and  _122
REMARK   53  A    between atoms: _122  and  _123
REMARK   54  A    between atoms: _125  and  _127
REMARK   55  A    between atoms: _127  and  _128
REMARK   56  A    between atoms: _127  and  _130
REMARK   57  A    between atoms: _130  and  _131
REMARK   58  A    between atoms: _133  and  _135
REMARK   59  A    between atoms: _135  and  _136
REMARK   60  A    between atoms: _135  and  _138
REMARK   61  A    between atoms: _138  and  _139
REMARK   62  A    between atoms: _144  and  _146
REMARK   63  A    between atoms: _146  and  _147
REMARK   64  A    between atoms: _146  and  _149
REMARK   65  A    between atoms: _153  and  _154
REMARK   66  A    between atoms: _159  and  _161
REMARK   67  A    between atoms: _161  and  _162
REMARK   68  A    between atoms: _161  and  _164
REMARK   69  A    between atoms: _164  and  _165
REMARK   70  A    between atoms: _170  and  _171
REMARK   71  A    between atoms: _173  and  _175
REMARK   72  A    between atoms: _175  and  _176
REMARK   73  A    between atoms: _175  and  _178
REMARK   74  A    between atoms: _178  and  _179
REMARK   75  A    between atoms: _182  and  _184
REMARK   76  A    between atoms: _184  and  _185
REMARK   77  A    between atoms: _184  and  _187
REMARK   78  A    between atoms: _187  and  _188
REMARK   79  A    between atoms: _188  and  _189
REMARK   80  A    between atoms: _194  and  _196
REMARK   81  A    between atoms: _196  and  _197
REMARK   82  A    between atoms: _199  and  _201
REMARK   83  A    between atoms: _201  and  _202
REMARK   84  A    between atoms: _201  and  _204
REMARK   85  A    between atoms: _204  and  _205
REMARK   86  A    between atoms: _205  and  _206
REMARK   87  A    between atoms: _206  and  _207
REMARK   88  A    between atoms: _207  and  _208
REMARK   89  A    between atoms: _212  and  _214
REMARK   90  A    between atoms: _214  and  _215
REMARK   91  A    between atoms: _214  and  _217
REMARK   92  A    between atoms: _217  and  _218
REMARK   93  A    between atoms: _228  and  _230
REMARK   94  A    between atoms: _230  and  _231
REMARK   95  A    between atoms: _230  and  _233
REMARK   96  A    between atoms: _233  and  _234
REMARK   97  A    between atoms: _237  and  _239
REMARK   98  A    between atoms: _239  and  _240
REMARK   99  A    between atoms: _239  and  _242
REMARK  100  A    between atoms: _242  and  _243
REMARK  101  A    between atoms: _243  and  _244
REMARK  102  A    between atoms: _244  and  _245
REMARK  103  A    between atoms: _245  and  _246
REMARK  104  A    between atoms: _250  and  _252
REMARK  105  A    between atoms: _252  and  _253
REMARK  106  A    between atoms: _252  and  _255
REMARK  107  A    between atoms: _255  and  _256
REMARK  108  A    between atoms: _262  and  _264
REMARK  109  A    between atoms: _264  and  _265
REMARK  110  A    between atoms: _264  and  _267
REMARK  111  A    between atoms: _267  and  _268
REMARK  112  A    between atoms: _274  and  _276
REMARK  113  A    between atoms: _276  and  _277
REMARK  114  A    between atoms: _276  and  _279
REMARK  115  A    between atoms: _279  and  _280
REMARK  116  A    between atoms: _283  and  _285
REMARK  117  A    between atoms: _285  and  _286
REMARK  118  A    between atoms: _285  and  _288
REMARK  119  A    between atoms: _288  and  _289
REMARK  120  A    between atoms: _291  and  _293
REMARK  121  A    between atoms: _293  and  _294
REMARK  122  A    between atoms: _293  and  _296
REMARK  123  A    between atoms: _296  and  _297
REMARK  124  A    between atoms: _307  and  _309
REMARK  125  A    between atoms: _309  and  _310
REMARK  126  A    between atoms: _312  and  _314
REMARK  127  A    between atoms: _314  and  _315
REMARK  128  A    between atoms: _314  and  _317
REMARK  129  A    between atoms: _317  and  _318
REMARK  130  A    between atoms: _321  and  _323
REMARK  131  A    between atoms: _323  and  _324
REMARK  132  A    between atoms: _323  and  _326
REMARK  133  A    between atoms: _326  and  _327
REMARK  134  A    between atoms: _330  and  _332
REMARK  135  A    between atoms: _332  and  _333
REMARK  136  A    between atoms: _335  and  _337
REMARK  137  A    between atoms: _337  and  _338
REMARK  138  A    between atoms: _337  and  _340
REMARK  139  A    between atoms: _340  and  _341
REMARK  140  A    between atoms: _344  and  _346
REMARK  141  A    between atoms: _346  and  _347
REMARK  142  A    between atoms: _350  and  _352
REMARK  143  A    between atoms: _352  and  _353
REMARK  144  A    between atoms: _352  and  _355
REMARK  145  A    between atoms: _355  and  _356
REMARK  146  A    between atoms: _361  and  _362
REMARK  147  A    between atoms: _364  and  _366
REMARK  148  A    between atoms: _366  and  _367
REMARK  149  A    between atoms: _370  and  _372
REMARK  150  A    between atoms: _372  and  _373
REMARK  151  A    between atoms: _372  and  _375
REMARK  152  A    between atoms: _375  and  _376
REMARK  153  A    between atoms: _376  and  _377
REMARK  154  A    between atoms: _380  and  _382
REMARK  155  A    between atoms: _382  and  _383
REMARK  156  A    between atoms: _382  and  _385
REMARK  157  A    between atoms: _385  and  _386
REMARK  158  A    between atoms: _389  and  _391
REMARK  159  A    between atoms: _391  and  _392
REMARK  160  A    between atoms: _395  and  _397
REMARK  161  A    between atoms: _397  and  _398
REMARK  162  A    between atoms: _397  and  _400
REMARK  163  A    between atoms: _400  and  _401
REMARK  164  A    between atoms: _401  and  _402
REMARK  165  A    between atoms: _402  and  _403
REMARK  166  A    between atoms: _412  and  _414
REMARK  167  A    between atoms: _414  and  _415
REMARK  168  A    between atoms: _414  and  _417
REMARK  169  A    between atoms: _417  and  _418
REMARK  170  A    between atoms: _421  and  _423
REMARK  171  A    between atoms: _423  and  _424
REMARK  172  A    between atoms: _426  and  _428
REMARK  173  A    between atoms: _428  and  _429
REMARK  174  A    between atoms: _428  and  _431
REMARK  175  A    between atoms: _431  and  _432
REMARK  176  A    between atoms: _442  and  _444
REMARK  177  A    between atoms: _444  and  _445
REMARK  178  A    between atoms: _444  and  _447
REMARK  179  A    between atoms: _447  and  _448
REMARK  180  A    between atoms: _453  and  _454
REMARK  181  A    between atoms: _456  and  _458
REMARK  182  A    between atoms: _458  and  _459
REMARK  183  A    between atoms: _458  and  _461
REMARK  184  A    between atoms: _461  and  _462
REMARK  185  A    between atoms: _467  and  _468
REMARK  186  A    between atoms: _470  and  _472
REMARK  187  A    between atoms: _472  and  _473
REMARK  188  A    between atoms: _472  and  _475
REMARK  189  A    between atoms: _475  and  _476
REMARK  190  A    between atoms: _476  and  _477
REMARK  191  A    between atoms: _477  and  _478
REMARK  192  A    between atoms: _478  and  _479
REMARK  193  A    between atoms: _483  and  _485
REMARK  194  A    between atoms: _485  and  _486
REMARK  195  A    between atoms: _485  and  _488
REMARK  196  A    between atoms: _488  and  _489
REMARK  197  A    between atoms: _492  and  _494
REMARK  198  A    between atoms: _494  and  _495
REMARK  199  A    between atoms: _494  and  _497
REMARK  200  A    between atoms: _500  and  _502
REMARK  201  A    between atoms: _502  and  _503
REMARK  202  A    between atoms: _502  and  _505
REMARK  203  A    between atoms: _505  and  _506
REMARK  204  A    between atoms: _509  and  _511
REMARK  205  A    between atoms: _511  and  _512
REMARK  206  A    between atoms: _511  and  _514
REMARK  207  A    between atoms: _514  and  _515
REMARK  208  A    between atoms: _517  and  _519
REMARK  209  A    between atoms: _519  and  _520
REMARK  210  A    between atoms: _522  and  _524
REMARK  211  A    between atoms: _524  and  _525
REMARK  212  A    between atoms: _524  and  _527
REMARK  213  A    between atoms: _527  and  _528
REMARK  214  A    between atoms: _531  and  _533
REMARK  215  A    between atoms: _533  and  _534
REMARK  216  A    between atoms: _533  and  _536
REMARK  217  A    between atoms: _536  and  _537
REMARK  218  A    between atoms: _540  and  _542
REMARK  219  A    between atoms: _542  and  _543
REMARK  220  A    between atoms: _542  and  _545
REMARK  221  A    between atoms: _545  and  _546
REMARK  222  A    between atoms: _551  and  _553
REMARK  223  A    between atoms: _553  and  _554
REMARK  224  A    between atoms: _553  and  _556
REMARK  225  A    between atoms: _556  and  _557
REMARK  226  A    between atoms: _560  and  _562
REMARK  227  A    between atoms: _562  and  _563
REMARK  228  A    between atoms: _562  and  _565
REMARK  229  A    between atoms: _565  and  _566
REMARK  230  A    between atoms: _566  and  _567
REMARK  231  A    between atoms: _567  and  _568
REMARK  232  A    between atoms: _577  and  _579
REMARK  233  A    between atoms: _579  and  _580
REMARK  234  A    between atoms: _579  and  _582
REMARK  235  A    between atoms: _582  and  _583
REMARK  236  A    between atoms: _586  and  _588
REMARK  237  A    between atoms: _588  and  _589
REMARK  238  A    between atoms: _588  and  _591
REMARK  239  A    between atoms: _591  and  _592
REMARK  240  A    between atoms: _595  and  _597
REMARK  241  A    between atoms: _597  and  _598
REMARK  242  A    between atoms: _600  and  _602
REMARK  243  A    between atoms: _602  and  _603
REMARK  244  A    between atoms: _602  and  _605
REMARK  245  A    between atoms: _605  and  _606
REMARK  246  A    between atoms: _606  and  _607
REMARK  247  A    between atoms: _607  and  _608
REMARK  248  A    between atoms: _617  and  _619
REMARK  249  A    between atoms: _619  and  _620
REMARK  250  A    between atoms: _619  and  _622
REMARK  251  A    between atoms: _622  and  _623
REMARK  252  A    between atoms: _629  and  _631
REMARK  253  A    between atoms: _631  and  _632
REMARK  254  A    between atoms: _635  and  _637
REMARK  255  A    between atoms: _637  and  _638
REMARK  256  A    between atoms: _637  and  _640
REMARK  257  A    between atoms: _640  and  _641
REMARK  258  A    between atoms: _644  and  _646
REMARK  259  A    between atoms: _646  and  _647
REMARK  260  A    between atoms: _646  and  _649
REMARK  261  A    between atoms: _649  and  _650
REMARK  262  A    between atoms: _652  and  _654
REMARK  263  A    between atoms: _654  and  _655
REMARK  264  A    between atoms: _654  and  _657
REMARK  265  A    between atoms: _657  and  _658
REMARK  266  A    between atoms: _658  and  _659
REMARK  267  A    between atoms: _664  and  _666
REMARK  268  A    between atoms: _666  and  _667
REMARK  269  A    between atoms: _666  and  _669
REMARK  270  A    between atoms: _669  and  _670
REMARK  271  A    between atoms: _672  and  _674
REMARK  272  A    between atoms: _674  and  _675
REMARK  273  A    between atoms: _674  and  _677
REMARK  274  A    between atoms: _677  and  _678
REMARK  275  A    between atoms: _680  and  _682
REMARK  276  A    between atoms: _682  and  _683
REMARK  277  A    between atoms: _682  and  _685
REMARK  278  A    between atoms: _685  and  _686
REMARK  279  A    between atoms: _689  and  _691
REMARK  280  A    between atoms: _691  and  _692
REMARK  281  A    between atoms: _691  and  _694
REMARK  282  A    between atoms: _697  and  _699
REMARK  283  A    between atoms: _699  and  _700
REMARK  284  A    between atoms: _702  and  _704
REMARK  285  A    between atoms: _704  and  _705
REMARK  286  A    between atoms: _708  and  _710
REMARK  287  A    between atoms: _710  and  _711
REMARK  288  A    between atoms: _710  and  _713
REMARK  289  A    between atoms: _716  and  _718
REMARK  290  A    between atoms: _718  and  _719
REMARK  291  A    between atoms: _718  and  _721
REMARK  292  A    between atoms: _721  and  _722
REMARK  293  A    between atoms: _722  and  _723
REMARK  294  A    between atoms: _725  and  _727
REMARK  295  A    between atoms: _727  and  _728
REMARK  296  A    between atoms: _727  and  _730
REMARK  297  A    between atoms: _730  and  _731
REMARK  298  A    between atoms: _731  and  _732
REMARK                            x       y       z     vdW  Elec       q    Type
REMARK                         _______ _______ _______ _____ _____    ______ ____
ROOT
ATOM      1  CA  LEU A   1       6.358   3.699  18.593  0.00  0.00    +0.145 C 
ENDROOT
BRANCH   1   2
ATOM      2  C   LEU A   1       6.395   2.607  19.651  0.00  0.00    +0.238 C 
ATOM      3  N   GLY A   2       7.560   2.431  20.266  0.00  0.00    -0.297 N 
ATOM      4  H   GLY A   2       8.371   3.027  20.004  0.00  0.00    +0.150 HD
ATOM      5  O   LEU A   1       5.389   1.929  19.893  0.00  0.00    -0.274 OA
BRANCH   3   6
ATOM      6  CA  GLY A   2       7.720   1.423  21.295  0.00  0.00    +0.163 C 
BRANCH   6   7
ATOM      7  C   GLY A   2       7.850   0.019  20.741  0.00  0.00    +0.229 C 
ATOM      8  O   GLY A   2       7.844  -0.964  21.485  0.00  0.00    -0.286 OA
ENDBRANCH   6   7
ENDBRANCH   3   6
ENDBRANCH   1   2
BRANCH   1   9
ATOM      9  N   LEU A   1       7.642   4.400  18.563  0.00  0.00    -0.238 NA
ATOM     10  H   LEU A   1       8.380   4.083  17.902  0.00  0.00    +0.142 HD
ENDBRANCH   1   9
BRANCH   1  11
ATOM     11  CB  LEU A   1       6.043   3.057  17.236  0.00  0.00    +0.026 C 
BRANCH  11  12
ATOM     12  CG  LEU A   1       5.796   3.978  16.043  0.00  0.00    +0.002 C 
ATOM     13  CD2 LEU A   1       4.777   5.029  16.419  0.00  0.00    +0.000 C 
ATOM     14  CD1 LEU A   1       5.281   3.141  14.863  0.00  0.00    +0.000 C 
ENDBRANCH  11  12
ENDBRANCH   1  11
TORSDOF 6
REMARK  Name = ../refined-set-2016/2vkm/2vkm_pocket.pdb
REMARK  298 active torsions:
REMARK  status: ('A' for Active; 'I' for Inactive)
REMARK    1  A    between atoms: _1  and  _3
REMARK    2  A    between atoms: _3  and  _4
REMARK    3  A    between atoms: _6  and  _8
REMARK    4  A    between atoms: _8  and  _9
REMARK    5  A    between atoms: _8  and  _11
REMARK    6  A    between atoms: _11  and  _12
REMARK    7  A    between atoms: _12  and  _13
REMARK    8  A    between atoms: _13  and  _14
REMARK    9  A    between atoms: _14  and  _15
REMARK   10  A    between atoms: _19  and  _21
REMARK   11  A    between atoms: _21  and  _22
REMARK   12  A    between atoms: _21  and  _24
REMARK   13  A    between atoms: _24  and  _25
REMARK   14  A    between atoms: _27  and  _29
REMARK   15  A    between atoms: _29  and  _30
REMARK   16  A    between atoms: _32  and  _34
REMARK   17  A    between atoms: _34  and  _35
REMARK   18  A    between atoms: _34  and  _37
REMARK   19  A    between atoms: _37  and  _38
REMARK   20  A    between atoms: _38  and  _39
REMARK   21  A    between atoms: _44  and  _46
REMARK   22  A    between atoms: _46  and  _47
REMARK   23  A    between atoms: _49  and  _51
REMARK   24  A    between atoms: _51  and  _52
REMARK   25  A    between atoms: _51  and  _54
REMARK   26  A    between atoms: _54  and  _55
REMARK   27  A    between atoms: _60  and  _61
REMARK   28  A    between atoms: _63  and  _65
REMARK   29  A    between atoms: _65  and  _66
REMARK   30  A    between atoms: _65  and  _68
REMARK   31  A    between atoms: _68  and  _69
REMARK   32  A    between atoms: _74  and  _75
REMARK   33  A    between atoms: _77  and  _79
REMARK   34  A    between atoms: _79  and  _80
REMARK   35  A    between atoms: _79  and  _82
REMARK   36  A    between atoms: _82  and  _83
REMARK   37  A    between atoms: _86  and  _88
REMARK   38  A    between atoms: _88  and  _89
REMARK   39  A    between atoms: _88  and  _91
REMARK   40  A    between atoms: _94  and  _96
REMARK   41  A    between atoms: _96  and  _97
REMARK   42  A    between atoms: _96  and  _99
REMARK   43  A    between atoms: _99  and  _100
REMARK   44  A    between atoms: _103  and  _105
REMARK   45  A    between atoms: _105  and  _106
REMARK   46  A    between atoms: _105  and  _108
REMARK   47  A    between atoms: _108  and  _109
REMARK   48  A    between atoms: _112  and  _114
REMARK   49  A    between atoms: _114  and  _115
REMARK   50  A    between atoms: _117  and  _119
REMARK   51  A    between atoms: _119  and  _120
REMARK   52  A    between atoms: _119  and  _122
REMARK   53  A    between atoms: _122  and  _123
REMARK   54  A    between atoms: _125  and  _127
REMARK   55  A    between atoms: _127  and  _128
REMARK   56  A    between atoms: _127  and  _130
REMARK   57  A    between atoms: _130  and  _131
REMARK   58  A    between atoms: _133  and  _135
REMARK   59  A    between atoms: _135  and  _136
REMARK   60  A    between atoms: _135  and  _138
REMARK   61  A    between atoms: _138  and  _139
REMARK   62  A    between atoms: _144  and  _146
REMARK   63  A    between atoms: _146  and  _147
REMARK   64  A    between atoms: _146  and  _149
REMARK   65  A    between atoms: _153  and  _154
REMARK   66  A    between atoms: _159  and  _161
REMARK   67  A    between atoms: _161  and  _162
REMARK   68  A    between atoms: _161  and  _164
REMARK   69  A    between atoms: _164  and  _165
REMARK   70  A    between atoms: _170  and  _171
REMARK   71  A    between atoms: _173  and  _175
REMARK   72  A    between atoms: _175  and  _176
REMARK   73  A    between atoms: _175  and  _178
REMARK   74  A    between atoms: _178  and  _179
REMARK   75  A    between atoms: _182  and  _184
REMARK   76  A    between atoms: _184  and  _185
REMARK   77  A    between atoms: _184  and  _187
REMARK   78  A    between atoms: _187  and  _188
REMARK   79  A    between atoms: _188  and  _189
REMARK   80  A    between atoms: _194  and  _196
REMARK   81  A    between atoms: _196  and  _197
REMARK   82  A    between atoms: _199  and  _201
REMARK   83  A    between atoms: _201  and  _202
REMARK   84  A    between atoms: _201  and  _204
REMARK   85  A    between atoms: _204  and  _205
REMARK   86  A    between atoms: _205  and  _206
REMARK   87  A    between atoms: _206  and  _207
REMARK   88  A    between atoms: _207  and  _208
REMARK   89  A    between atoms: _212  and  _214
REMARK   90  A    between atoms: _214  and  _215
REMARK   91  A    between atoms: _214  and  _217
REMARK   92  A    between atoms: _217  and  _218
REMARK   93  A    between atoms: _228  and  _230
REMARK   94  A    between atoms: _230  and  _231
REMARK   95  A    between atoms: _230  and  _233
REMARK   96  A    between atoms: _233  and  _234
REMARK   97  A    between atoms: _237  and  _239
REMARK   98  A    between atoms: _239  and  _240
REMARK   99  A    between atoms: _239  and  _242
REMARK  100  A    between atoms: _242  and  _243
REMARK  101  A    between atoms: _243  and  _244
REMARK  102  A    between atoms: _244  and  _245
REMARK  103  A    between atoms: _245  and  _246
REMARK  104  A    between atoms: _250  and  _252
REMARK  105  A    between atoms: _252  and  _253
REMARK  106  A    between atoms: _252  and  _255
REMARK  107  A    between atoms: _255  and  _256
REMARK  108  A    between atoms: _262  and  _264
REMARK  109  A    between atoms: _264  and  _265
REMARK  110  A    between atoms: _264  and  _267
REMARK  111  A    between atoms: _267  and  _268
REMARK  112  A    between atoms: _274  and  _276
REMARK  113  A    between atoms: _276  and  _277
REMARK  114  A    between atoms: _276  and  _279
REMARK  115  A    between atoms: _279  and  _280
REMARK  116  A    between atoms: _283  and  _285
REMARK  117  A    between atoms: _285  and  _286
REMARK  118  A    between atoms: _285  and  _288
REMARK  119  A    between atoms: _288  and  _289
REMARK  120  A    between atoms: _291  and  _293
REMARK  121  A    between atoms: _293  and  _294
REMARK  122  A    between atoms: _293  and  _296
REMARK  123  A    between atoms: _296  and  _297
REMARK  124  A    between atoms: _307  and  _309
REMARK  125  A    between atoms: _309  and  _310
REMARK  126  A    between atoms: _312  and  _314
REMARK  127  A    between atoms: _314  and  _315
REMARK  128  A    between atoms: _314  and  _317
REMARK  129  A    between atoms: _317  and  _318
REMARK  130  A    between atoms: _321  and  _323
REMARK  131  A    between atoms: _323  and  _324
REMARK  132  A    between atoms: _323  and  _326
REMARK  133  A    between atoms: _326  and  _327
REMARK  134  A    between atoms: _330  and  _332
REMARK  135  A    between atoms: _332  and  _333
REMARK  136  A    between atoms: _335  and  _337
REMARK  137  A    between atoms: _337  and  _338
REMARK  138  A    between atoms: _337  and  _340
REMARK  139  A    between atoms: _340  and  _341
REMARK  140  A    between atoms: _344  and  _346
REMARK  141  A    between atoms: _346  and  _347
REMARK  142  A    between atoms: _350  and  _352
REMARK  143  A    between atoms: _352  and  _353
REMARK  144  A    between atoms: _352  and  _355
REMARK  145  A    between atoms: _355  and  _356
REMARK  146  A    between atoms: _361  and  _362
REMARK  147  A    between atoms: _364  and  _366
REMARK  148  A    between atoms: _366  and  _367
REMARK  149  A    between atoms: _370  and  _372
REMARK  150  A    between atoms: _372  and  _373
REMARK  151  A    between atoms: _372  and  _375
REMARK  152  A    between atoms: _375  and  _376
REMARK  153  A    between atoms: _376  and  _377
REMARK  154  A    between atoms: _380  and  _382
REMARK  155  A    between atoms: _382  and  _383
REMARK  156  A    between atoms: _382  and  _385
REMARK  157  A    between atoms: _385  and  _386
REMARK  158  A    between atoms: _389  and  _391
REMARK  159  A    between atoms: _391  and  _392
REMARK  160  A    between atoms: _395  and  _397
REMARK  161  A    between atoms: _397  and  _398
REMARK  162  A    between atoms: _397  and  _400
REMARK  163  A    between atoms: _400  and  _401
REMARK  164  A    between atoms: _401  and  _402
REMARK  165  A    between atoms: _402  and  _403
REMARK  166  A    between atoms: _412  and  _414
REMARK  167  A    between atoms: _414  and  _415
REMARK  168  A    between atoms: _414  and  _417
REMARK  169  A    between atoms: _417  and  _418
REMARK  170  A    between atoms: _421  and  _423
REMARK  171  A    between atoms: _423  and  _424
REMARK  172  A    between atoms: _426  and  _428
REMARK  173  A    between atoms: _428  and  _429
REMARK  174  A    between atoms: _428  and  _431
REMARK  175  A    between atoms: _431  and  _432
REMARK  176  A    between atoms: _442  and  _444
REMARK  177  A    between atoms: _444  and  _445
REMARK  178  A    between atoms: _444  and  _447
REMARK  179  A    between atoms: _447  and  _448
REMARK  180  A    between atoms: _453  and  _454
REMARK  181  A    between atoms: _456  and  _458
REMARK  182  A    between atoms: _458  and  _459
REMARK  183  A    between atoms: _458  and  _461
REMARK  184  A    between atoms: _461  and  _462
REMARK  185  A    between atoms: _467  and  _468
REMARK  186  A    between atoms: _470  and  _472
REMARK  187  A    between atoms: _472  and  _473
REMARK  188  A    between atoms: _472  and  _475
REMARK  189  A    between atoms: _475  and  _476
REMARK  190  A    between atoms: _476  and  _477
REMARK  191  A    between atoms: _477  and  _478
REMARK  192  A    between atoms: _478  and  _479
REMARK  193  A    between atoms: _483  and  _485
REMARK  194  A    between atoms: _485  and  _486
REMARK  195  A    between atoms: _485  and  _488
REMARK  196  A    between atoms: _488  and  _489
REMARK  197  A    between atoms: _492  and  _494
REMARK  198  A    between atoms: _494  and  _495
REMARK  199  A    between atoms: _494  and  _497
REMARK  200  A    between atoms: _500  and  _502
REMARK  201  A    between atoms: _502  and  _503
REMARK  202  A    between atoms: _502  and  _505
REMARK  203  A    between atoms: _505  and  _506
REMARK  204  A    between atoms: _509  and  _511
REMARK  205  A    between atoms: _511  and  _512
REMARK  206  A    between atoms: _511  and  _514
REMARK  207  A    between atoms: _514  and  _515
REMARK  208  A    between atoms: _517  and  _519
REMARK  209  A    between atoms: _519  and  _520
REMARK  210  A    between atoms: _522  and  _524
REMARK  211  A    between atoms: _524  and  _525
REMARK  212  A    between atoms: _524  and  _527
REMARK  213  A    between atoms: _527  and  _528
REMARK  214  A    between atoms: _531  and  _533
REMARK  215  A    between atoms: _533  and  _534
REMARK  216  A    between atoms: _533  and  _536
REMARK  217  A    between atoms: _536  and  _537
REMARK  218  A    between atoms: _540  and  _542
REMARK  219  A    between atoms: _542  and  _543
REMARK  220  A    between atoms: _542  and  _545
REMARK  221  A    between atoms: _545  and  _546
REMARK  222  A    between atoms: _551  and  _553
REMARK  223  A    between atoms: _553  and  _554
REMARK  224  A    between atoms: _553  and  _556
REMARK  225  A    between atoms: _556  and  _557
REMARK  226  A    between atoms: _560  and  _562
REMARK  227  A    between atoms: _562  and  _563
REMARK  228  A    between atoms: _562  and  _565
REMARK  229  A    between atoms: _565  and  _566
REMARK  230  A    between atoms: _566  and  _567
REMARK  231  A    between atoms: _567  and  _568
REMARK  232  A    between atoms: _577  and  _579
REMARK  233  A    between atoms: _579  and  _580
REMARK  234  A    between atoms: _579  and  _582
REMARK  235  A    between atoms: _582  and  _583
REMARK  236  A    between atoms: _586  and  _588
REMARK  237  A    between atoms: _588  and  _589
REMARK  238  A    between atoms: _588  and  _591
REMARK  239  A    between atoms: _591  and  _592
REMARK  240  A    between atoms: _595  and  _597
REMARK  241  A    between atoms: _597  and  _598
REMARK  242  A    between atoms: _600  and  _602
REMARK  243  A    between atoms: _602  and  _603
REMARK  244  A    between atoms: _602  and  _605
REMARK  245  A    between atoms: _605  and  _606
REMARK  246  A    between atoms: _606  and  _607
REMARK  247  A    between atoms: _607  and  _608
REMARK  248  A    between atoms: _617  and  _619
REMARK  249  A    between atoms: _619  and  _620
REMARK  250  A    between atoms: _619  and  _622
REMARK  251  A    between atoms: _622  and  _623
REMARK  252  A    between atoms: _629  and  _631
REMARK  253  A    between atoms: _631  and  _632
REMARK  254  A    between atoms: _635  and  _637
REMARK  255  A    between atoms: _637  and  _638
REMARK  256  A    between atoms: _637  and  _640
REMARK  257  A    between atoms: _640  and  _641
REMARK  258  A    between atoms: _644  and  _646
REMARK  259  A    between atoms: _646  and  _647
REMARK  260  A    between atoms: _646  and  _649
REMARK  261  A    between atoms: _649  and  _650
REMARK  262  A    between atoms: _652  and  _654
REMARK  263  A    between atoms: _654  and  _655
REMARK  264  A    between atoms: _654  and  _657
REMARK  265  A    between atoms: _657  and  _658
REMARK  266  A    between atoms: _658  and  _659
REMARK  267  A    between atoms: _664  and  _666
REMARK  268  A    between atoms: _666  and  _667
REMARK  269  A    between atoms: _666  and  _669
REMARK  270  A    between atoms: _669  and  _670
REMARK  271  A    between atoms: _672  and  _674
REMARK  272  A    between atoms: _674  and  _675
REMARK  273  A    between atoms: _674  and  _677
REMARK  274  A    between atoms: _677  and  _678
REMARK  275  A    between atoms: _680  and  _682
REMARK  276  A    between atoms: _682  and  _683
REMARK  277  A    between atoms: _682  and  _685
REMARK  278  A    between atoms: _685  and  _686
REMARK  279  A    between atoms: _689  and  _691
REMARK  280  A    between atoms: _691  and  _692
REMARK  281  A    between atoms: _691  and  _694
REMARK  282  A    between atoms: _697  and  _699
REMARK  283  A    between atoms: _699  and  _700
REMARK  284  A    between atoms: _702  and  _704
REMARK  285  A    between atoms: _704  and  _705
REMARK  286  A    between atoms: _708  and  _710
REMARK  287  A    between atoms: _710  and  _711
REMARK  288  A    between atoms: _710  and  _713
REMARK  289  A    between atoms: _716  and  _718
REMARK  290  A    between atoms: _718  and  _719
REMARK  291  A    between atoms: _718  and  _721
REMARK  292  A    between atoms: _721  and  _722
REMARK  293  A    between atoms: _722  and  _723
REMARK  294  A    between atoms: _725  and  _727
REMARK  295  A    between atoms: _727  and  _728
REMARK  296  A    between atoms: _727  and  _730
REMARK  297  A    between atoms: _730  and  _731
REMARK  298  A    between atoms: _731  and  _732
REMARK                            x       y       z     vdW  Elec       q    Type
REMARK                         _______ _______ _______ _____ _____    ______ ____
ROOT
ATOM      1  NE  ARG A   1       8.483  -0.439  32.134  0.00  0.00    -0.265 N 
ATOM      2  CZ  ARG A   1       8.483  -1.447  33.004  0.00  0.00    +0.342 C 
ATOM      3  NH2 ARG A   1       7.993  -1.277  34.223  0.00  0.00    -0.292 N 
ATOM      4 HH21 ARG A   1       7.995  -2.067  34.899  0.00  0.00    +0.255 HD
ATOM      5 HH22 ARG A   1       7.606  -0.353  34.504  0.00  0.00    +0.255 HD
ATOM      6  NH1 ARG A   1       8.939  -2.642  32.641  0.00  0.00    -0.292 N 
ATOM      7 HH11 ARG A   1       8.938  -3.428  33.322  0.00  0.00    +0.255 HD
ATOM      8 HH12 ARG A   1       9.297  -2.791  31.676  0.00  0.00    +0.255 HD
ATOM      9  HE  ARG A   1       8.121   0.483  32.452  0.00  0.00    +0.259 HD
ENDROOT
BRANCH   1  10
ATOM     10  CD  ARG A   1       8.963  -0.555  30.756  0.00  0.00    +0.174 C 
BRANCH  10  11
ATOM     11  CG  ARG A   1      10.255   0.203  30.536  0.00  0.00    +0.045 C 
BRANCH  11  12
ATOM     12  CB  ARG A   1      11.281  -0.658  29.857  0.00  0.00    +0.029 C 
BRANCH  12  13
ATOM     13  CA  ARG A   1      12.668  -0.017  29.888  0.00  0.00    +0.133 C 
BRANCH  13  14
ATOM     14  N   ARG A   1      12.642   1.264  29.207  0.00  0.00    -0.239 NA
ATOM     15  H   ARG A   1      11.956   1.421  28.441  0.00  0.00    +0.142 HD
ENDBRANCH  13  14
BRANCH  13  16
ATOM     16  C   ARG A   1      13.705  -0.968  29.291  0.00  0.00    +0.224 C 
ATOM     17  O   ARG A   1      13.775  -1.161  28.077  0.00  0.00    -0.287 OA
ENDBRANCH  13  16
ENDBRANCH  12  13
ENDBRANCH  11  12
ENDBRANCH  10  11
ENDBRANCH   1  10
TORSDOF 6
REMARK  Name = ../refined-set-2016/2vkm/2vkm_pocket.pdb
REMARK  298 active torsions:
REMARK  status: ('A' for Active; 'I' for Inactive)
REMARK    1  A    between atoms: _1  and  _3
REMARK    2  A    between atoms: _3  and  _4
REMARK    3  A    between atoms: _6  and  _8
REMARK    4  A    between atoms: _8  and  _9
REMARK    5  A    between atoms: _8  and  _11
REMARK    6  A    between atoms: _11  and  _12
REMARK    7  A    between atoms: _12  and  _13
REMARK    8  A    between atoms: _13  and  _14
REMARK    9  A    between atoms: _14  and  _15
REMARK   10  A    between atoms: _19  and  _21
REMARK   11  A    between atoms: _21  and  _22
REMARK   12  A    between atoms: _21  and  _24
REMARK   13  A    between atoms: _24  and  _25
REMARK   14  A    between atoms: _27  and  _29
REMARK   15  A    between atoms: _29  and  _30
REMARK   16  A    between atoms: _32  and  _34
REMARK   17  A    between atoms: _34  and  _35
REMARK   18  A    between atoms: _34  and  _37
REMARK   19  A    between atoms: _37  and  _38
REMARK   20  A    between atoms: _38  and  _39
REMARK   21  A    between atoms: _44  and  _46
REMARK   22  A    between atoms: _46  and  _47
REMARK   23  A    between atoms: _49  and  _51
REMARK   24  A    between atoms: _51  and  _52
REMARK   25  A    between atoms: _51  and  _54
REMARK   26  A    between atoms: _54  and  _55
REMARK   27  A    between atoms: _60  and  _61
REMARK   28  A    between atoms: _63  and  _65
REMARK   29  A    between atoms: _65  and  _66
REMARK   30  A    between atoms: _65  and  _68
REMARK   31  A    between atoms: _68  and  _69
REMARK   32  A    between atoms: _74  and  _75
REMARK   33  A    between atoms: _77  and  _79
REMARK   34  A    between atoms: _79  and  _80
REMARK   35  A    between atoms: _79  and  _82
REMARK   36  A    between atoms: _82  and  _83
REMARK   37  A    between atoms: _86  and  _88
REMARK   38  A    between atoms: _88  and  _89
REMARK   39  A    between atoms: _88  and  _91
REMARK   40  A    between atoms: _94  and  _96
REMARK   41  A    between atoms: _96  and  _97
REMARK   42  A    between atoms: _96  and  _99
REMARK   43  A    between atoms: _99  and  _100
REMARK   44  A    between atoms: _103  and  _105
REMARK   45  A    between atoms: _105  and  _106
REMARK   46  A    between atoms: _105  and  _108
REMARK   47  A    between atoms: _108  and  _109
REMARK   48  A    between atoms: _112  and  _114
REMARK   49  A    between atoms: _114  and  _115
REMARK   50  A    between atoms: _117  and  _119
REMARK   51  A    between atoms: _119  and  _120
REMARK   52  A    between atoms: _119  and  _122
REMARK   53  A    between atoms: _122  and  _123
REMARK   54  A    between atoms: _125  and  _127
REMARK   55  A    between atoms: _127  and  _128
REMARK   56  A    between atoms: _127  and  _130
REMARK   57  A    between atoms: _130  and  _131
REMARK   58  A    between atoms: _133  and  _135
REMARK   59  A    between atoms: _135  and  _136
REMARK   60  A    between atoms: _135  and  _138
REMARK   61  A    between atoms: _138  and  _139
REMARK   62  A    between atoms: _144  and  _146
REMARK   63  A    between atoms: _146  and  _147
REMARK   64  A    between atoms: _146  and  _149
REMARK   65  A    between atoms: _153  and  _154
REMARK   66  A    between atoms: _159  and  _161
REMARK   67  A    between atoms: _161  and  _162
REMARK   68  A    between atoms: _161  and  _164
REMARK   69  A    between atoms: _164  and  _165
REMARK   70  A    between atoms: _170  and  _171
REMARK   71  A    between atoms: _173  and  _175
REMARK   72  A    between atoms: _175  and  _176
REMARK   73  A    between atoms: _175  and  _178
REMARK   74  A    between atoms: _178  and  _179
REMARK   75  A    between atoms: _182  and  _184
REMARK   76  A    between atoms: _184  and  _185
REMARK   77  A    between atoms: _184  and  _187
REMARK   78  A    between atoms: _187  and  _188
REMARK   79  A    between atoms: _188  and  _189
REMARK   80  A    between atoms: _194  and  _196
REMARK   81  A    between atoms: _196  and  _197
REMARK   82  A    between atoms: _199  and  _201
REMARK   83  A    between atoms: _201  and  _202
REMARK   84  A    between atoms: _201  and  _204
REMARK   85  A    between atoms: _204  and  _205
REMARK   86  A    between atoms: _205  and  _206
REMARK   87  A    between atoms: _206  and  _207
REMARK   88  A    between atoms: _207  and  _208
REMARK   89  A    between atoms: _212  and  _214
REMARK   90  A    between atoms: _214  and  _215
REMARK   91  A    between atoms: _214  and  _217
REMARK   92  A    between atoms: _217  and  _218
REMARK   93  A    between atoms: _228  and  _230
REMARK   94  A    between atoms: _230  and  _231
REMARK   95  A    between atoms: _230  and  _233
REMARK   96  A    between atoms: _233  and  _234
REMARK   97  A    between atoms: _237  and  _239
REMARK   98  A    between atoms: _239  and  _240
REMARK   99  A    between atoms: _239  and  _242
REMARK  100  A    between atoms: _242  and  _243
REMARK  101  A    between atoms: _243  and  _244
REMARK  102  A    between atoms: _244  and  _245
REMARK  103  A    between atoms: _245  and  _246
REMARK  104  A    between atoms: _250  and  _252
REMARK  105  A    between atoms: _252  and  _253
REMARK  106  A    between atoms: _252  and  _255
REMARK  107  A    between atoms: _255  and  _256
REMARK  108  A    between atoms: _262  and  _264
REMARK  109  A    between atoms: _264  and  _265
REMARK  110  A    between atoms: _264  and  _267
REMARK  111  A    between atoms: _267  and  _268
REMARK  112  A    between atoms: _274  and  _276
REMARK  113  A    between atoms: _276  and  _277
REMARK  114  A    between atoms: _276  and  _279
REMARK  115  A    between atoms: _279  and  _280
REMARK  116  A    between atoms: _283  and  _285
REMARK  117  A    between atoms: _285  and  _286
REMARK  118  A    between atoms: _285  and  _288
REMARK  119  A    between atoms: _288  and  _289
REMARK  120  A    between atoms: _291  and  _293
REMARK  121  A    between atoms: _293  and  _294
REMARK  122  A    between atoms: _293  and  _296
REMARK  123  A    between atoms: _296  and  _297
REMARK  124  A    between atoms: _307  and  _309
REMARK  125  A    between atoms: _309  and  _310
REMARK  126  A    between atoms: _312  and  _314
REMARK  127  A    between atoms: _314  and  _315
REMARK  128  A    between atoms: _314  and  _317
REMARK  129  A    between atoms: _317  and  _318
REMARK  130  A    between atoms: _321  and  _323
REMARK  131  A    between atoms: _323  and  _324
REMARK  132  A    between atoms: _323  and  _326
REMARK  133  A    between atoms: _326  and  _327
REMARK  134  A    between atoms: _330  and  _332
REMARK  135  A    between atoms: _332  and  _333
REMARK  136  A    between atoms: _335  and  _337
REMARK  137  A    between atoms: _337  and  _338
REMARK  138  A    between atoms: _337  and  _340
REMARK  139  A    between atoms: _340  and  _341
REMARK  140  A    between atoms: _344  and  _346
REMARK  141  A    between atoms: _346  and  _347
REMARK  142  A    between atoms: _350  and  _352
REMARK  143  A    between atoms: _352  and  _353
REMARK  144  A    between atoms: _352  and  _355
REMARK  145  A    between atoms: _355  and  _356
REMARK  146  A    between atoms: _361  and  _362
REMARK  147  A    between atoms: _364  and  _366
REMARK  148  A    between atoms: _366  and  _367
REMARK  149  A    between atoms: _370  and  _372
REMARK  150  A    between atoms: _372  and  _373
REMARK  151  A    between atoms: _372  and  _375
REMARK  152  A    between atoms: _375  and  _376
REMARK  153  A    between atoms: _376  and  _377
REMARK  154  A    between atoms: _380  and  _382
REMARK  155  A    between atoms: _382  and  _383
REMARK  156  A    between atoms: _382  and  _385
REMARK  157  A    between atoms: _385  and  _386
REMARK  158  A    between atoms: _389  and  _391
REMARK  159  A    between atoms: _391  and  _392
REMARK  160  A    between atoms: _395  and  _397
REMARK  161  A    between atoms: _397  and  _398
REMARK  162  A    between atoms: _397  and  _400
REMARK  163  A    between atoms: _400  and  _401
REMARK  164  A    between atoms: _401  and  _402
REMARK  165  A    between atoms: _402  and  _403
REMARK  166  A    between atoms: _412  and  _414
REMARK  167  A    between atoms: _414  and  _415
REMARK  168  A    between atoms: _414  and  _417
REMARK  169  A    between atoms: _417  and  _418
REMARK  170  A    between atoms: _421  and  _423
REMARK  171  A    between atoms: _423  and  _424
REMARK  172  A    between atoms: _426  and  _428
REMARK  173  A    between atoms: _428  and  _429
REMARK  174  A    between atoms: _428  and  _431
REMARK  175  A    between atoms: _431  and  _432
REMARK  176  A    between atoms: _442  and  _444
REMARK  177  A    between atoms: _444  and  _445
REMARK  178  A    between atoms: _444  and  _447
REMARK  179  A    between atoms: _447  and  _448
REMARK  180  A    between atoms: _453  and  _454
REMARK  181  A    between atoms: _456  and  _458
REMARK  182  A    between atoms: _458  and  _459
REMARK  183  A    between atoms: _458  and  _461
REMARK  184  A    between atoms: _461  and  _462
REMARK  185  A    between atoms: _467  and  _468
REMARK  186  A    between atoms: _470  and  _472
REMARK  187  A    between atoms: _472  and  _473
REMARK  188  A    between atoms: _472  and  _475
REMARK  189  A    between atoms: _475  and  _476
REMARK  190  A    between atoms: _476  and  _477
REMARK  191  A    between atoms: _477  and  _478
REMARK  192  A    between atoms: _478  and  _479
REMARK  193  A    between atoms: _483  and  _485
REMARK  194  A    between atoms: _485  and  _486
REMARK  195  A    between atoms: _485  and  _488
REMARK  196  A    between atoms: _488  and  _489
REMARK  197  A    between atoms: _492  and  _494
REMARK  198  A    between atoms: _494  and  _495
REMARK  199  A    between atoms: _494  and  _497
REMARK  200  A    between atoms: _500  and  _502
REMARK  201  A    between atoms: _502  and  _503
REMARK  202  A    between atoms: _502  and  _505
REMARK  203  A    between atoms: _505  and  _506
REMARK  204  A    between atoms: _509  and  _511
REMARK  205  A    between atoms: _511  and  _512
REMARK  206  A    between atoms: _511  and  _514
REMARK  207  A    between atoms: _514  and  _515
REMARK  208  A    between atoms: _517  and  _519
REMARK  209  A    between atoms: _519  and  _520
REMARK  210  A    between atoms: _522  and  _524
REMARK  211  A    between atoms: _524  and  _525
REMARK  212  A    between atoms: _524  and  _527
REMARK  213  A    between atoms: _527  and  _528
REMARK  214  A    between atoms: _531  and  _533
REMARK  215  A    between atoms: _533  and  _534
REMARK  216  A    between atoms: _533  and  _536
REMARK  217  A    between atoms: _536  and  _537
REMARK  218  A    between atoms: _540  and  _542
REMARK  219  A    between atoms: _542  and  _543
REMARK  220  A    between atoms: _542  and  _545
REMARK  221  A    between atoms: _545  and  _546
REMARK  222  A    between atoms: _551  and  _553
REMARK  223  A    between atoms: _553  and  _554
REMARK  224  A    between atoms: _553  and  _556
REMARK  225  A    between atoms: _556  and  _557
REMARK  226  A    between atoms: _560  and  _562
REMARK  227  A    between atoms: _562  and  _563
REMARK  228  A    between atoms: _562  and  _565
REMARK  229  A    between atoms: _565  and  _566
REMARK  230  A    between atoms: _566  and  _567
REMARK  231  A    between atoms: _567  and  _568
REMARK  232  A    between atoms: _577  and  _579
REMARK  233  A    between atoms: _579  and  _580
REMARK  234  A    between atoms: _579  and  _582
REMARK  235  A    between atoms: _582  and  _583
REMARK  236  A    between atoms: _586  and  _588
REMARK  237  A    between atoms: _588  and  _589
REMARK  238  A    between atoms: _588  and  _591
REMARK  239  A    between atoms: _591  and  _592
REMARK  240  A    between atoms: _595  and  _597
REMARK  241  A    between atoms: _597  and  _598
REMARK  242  A    between atoms: _600  and  _602
REMARK  243  A    between atoms: _602  and  _603
REMARK  244  A    between atoms: _602  and  _605
REMARK  245  A    between atoms: _605  and  _606
REMARK  246  A    between atoms: _606  and  _607
REMARK  247  A    between atoms: _607  and  _608
REMARK  248  A    between atoms: _617  and  _619
REMARK  249  A    between atoms: _619  and  _620
REMARK  250  A    between atoms: _619  and  _622
REMARK  251  A    between atoms: _622  and  _623
REMARK  252  A    between atoms: _629  and  _631
REMARK  253  A    between atoms: _631  and  _632
REMARK  254  A    between atoms: _635  and  _637
REMARK  255  A    between atoms: _637  and  _638
REMARK  256  A    between atoms: _637  and  _640
REMARK  257  A    between atoms: _640  and  _641
REMARK  258  A    between atoms: _644  and  _646
REMARK  259  A    between atoms: _646  and  _647
REMARK  260  A    between atoms: _646  and  _649
REMARK  261  A    between atoms: _649  and  _650
REMARK  262  A    between atoms: _652  and  _654
REMARK  263  A    between atoms: _654  and  _655
REMARK  264  A    between atoms: _654  and  _657
REMARK  265  A    between atoms: _657  and  _658
REMARK  266  A    between atoms: _658  and  _659
REMARK  267  A    between atoms: _664  and  _666
REMARK  268  A    between atoms: _666  and  _667
REMARK  269  A    between atoms: _666  and  _669
REMARK  270  A    between atoms: _669  and  _670
REMARK  271  A    between atoms: _672  and  _674
REMARK  272  A    between atoms: _674  and  _675
REMARK  273  A    between atoms: _674  and  _677
REMARK  274  A    between atoms: _677  and  _678
REMARK  275  A    between atoms: _680  and  _682
REMARK  276  A    between atoms: _682  and  _683
REMARK  277  A    between atoms: _682  and  _685
REMARK  278  A    between atoms: _685  and  _686
REMARK  279  A    between atoms: _689  and  _691
REMARK  280  A    between atoms: _691  and  _692
REMARK  281  A    between atoms: _691  and  _694
REMARK  282  A    between atoms: _697  and  _699
REMARK  283  A    between atoms: _699  and  _700
REMARK  284  A    between atoms: _702  and  _704
REMARK  285  A    between atoms: _704  and  _705
REMARK  286  A    between atoms: _708  and  _710
REMARK  287  A    between atoms: _710  and  _711
REMARK  288  A    between atoms: _710  and  _713
REMARK  289  A    between atoms: _716  and  _718
REMARK  290  A    between atoms: _718  and  _719
REMARK  291  A    between atoms: _718  and  _721
REMARK  292  A    between atoms: _721  and  _722
REMARK  293  A    between atoms: _722  and  _723
REMARK  294  A    between atoms: _725  and  _727
REMARK  295  A    between atoms: _727  and  _728
REMARK  296  A    between atoms: _727  and  _730
REMARK  297  A    between atoms: _730  and  _731
REMARK  298  A    between atoms: _731  and  _732
REMARK                            x       y       z     vdW  Elec       q    Type
REMARK                         _______ _______ _______ _____ _____    ______ ____
ROOT
ATOM      1  C   SER A   4       1.393   6.081  24.186  0.00  0.00    +0.243 C 
ATOM      2  O   SER A   4       0.926   6.728  25.122  0.00  0.00    -0.273 OA
ATOM      3  N   GLN A   5       0.744   5.907  23.042  0.00  0.00    -0.297 N 
ATOM      4  H   GLN A   5       1.165   5.306  22.305  0.00  0.00    +0.150 HD
ENDROOT
BRANCH   3   5
ATOM      5  CA  GLN A   5      -0.548   6.540  22.794  0.00  0.00    +0.149 C 
BRANCH   5   6
ATOM      6  C   GLN A   5      -1.777   5.848  23.410  0.00  0.00    +0.241 C 
ATOM      7  N   SER A   6      -2.731   6.657  23.865  0.00  0.00    -0.295 N 
ATOM      8  H   SER A   6      -2.588   7.686  23.820  0.00  0.00    +0.150 HD
ATOM      9  O   GLN A   5      -1.865   4.617  23.454  0.00  0.00    -0.273 OA
BRANCH   7  10
ATOM     10  CA  SER A   6      -3.975   6.133  24.427  0.00  0.00    +0.178 C 
BRANCH  10  11
ATOM     11  C   SER A   6      -5.224   6.803  23.842  0.00  0.00    +0.243 C 
ATOM     12  N   SER A   7      -6.311   6.043  23.728  0.00  0.00    -0.295 N 
ATOM     13  H   SER A   7      -6.261   5.035  23.981  0.00  0.00    +0.150 HD
ATOM     14  O   SER A   6      -5.208   7.992  23.505  0.00  0.00    -0.273 OA
BRANCH  12  15
ATOM     15  CA  SER A   7      -7.577   6.606  23.251  0.00  0.00    +0.178 C 
BRANCH  15  16
ATOM     16  C   SER A   7      -8.553   6.580  24.417  0.00  0.00    +0.243 C 
ATOM     17  N   THR A   8      -8.061   6.200  25.591  0.00  0.00    -0.296 N 
ATOM     18  H   THR A   8      -7.056   5.946  25.681  0.00  0.00    +0.150 HD
ATOM     19  O   SER A   7      -9.737   6.887  24.263  0.00  0.00    -0.273 OA
BRANCH  17  20
ATOM     20  CA  THR A   8      -8.938   6.141  26.751  0.00  0.00    +0.164 C 
BRANCH  20  21
ATOM     21  CB  THR A   8      -9.196   4.669  27.186  0.00  0.00    +0.136 C 
ATOM     22  CG2 THR A   8      -9.939   3.913  26.091  0.00  0.00    +0.034 C 
BRANCH  21  23
ATOM     23  OG1 THR A   8      -7.951   4.017  27.455  0.00  0.00    -0.382 OA
ATOM     24  HG1 THR A   8      -7.393   4.024  26.637  0.00  0.00    +0.210 HD
ENDBRANCH  21  23
ENDBRANCH  20  21
BRANCH  20  25
ATOM     25  C   THR A   8      -8.423   6.932  27.951  0.00  0.00    +0.229 C 
ATOM     26  O   THR A   8      -8.717   6.581  29.100  0.00  0.00    -0.286 OA
ENDBRANCH  20  25
ENDBRANCH  17  20
ENDBRANCH  15  16
BRANCH  15  27
ATOM     27  CB  SER A   7      -8.158   5.773  22.110  0.00  0.00    +0.166 C 
BRANCH  27  28
ATOM     28  OG  SER A   7      -8.279   4.419  22.509  0.00  0.00    -0.380 OA
ATOM     29  H   SER A   7      -7.386   4.066  22.748  0.00  0.00    +0.211 HD
ENDBRANCH  27  28
ENDBRANCH  15  27
ENDBRANCH  12  15
ENDBRANCH  10  11
BRANCH  10  30
ATOM     30  CB  SER A   6      -3.996   6.323  25.944  0.00  0.00    +0.166 C 
BRANCH  30  31
ATOM     31  OG  SER A   6      -5.283   6.032  26.474  0.00  0.00    -0.380 OA
ATOM     32  H   SER A   6      -5.272   6.162  27.455  0.00  0.00    +0.211 HD
ENDBRANCH  30  31
ENDBRANCH  10  30
ENDBRANCH   7  10
ENDBRANCH   5   6
BRANCH   5  33
ATOM     33  CB  GLN A   5      -0.761   6.674  21.276  0.00  0.00    +0.039 C 
BRANCH  33  34
ATOM     34  CG  GLN A   5      -1.864   7.658  20.888  0.00  0.00    +0.087 C 
BRANCH  34  35
ATOM     35  CD  GLN A   5      -1.933   7.895  19.380  0.00  0.00    +0.219 C 
ATOM     36  NE2 GLN A   5      -3.143   7.949  18.844  0.00  0.00    -0.329 N 
ATOM     37 HE21 GLN A   5      -3.983   7.826  19.444  0.00  0.00    +0.145 HD
ATOM     38 HE22 GLN A   5      -3.253   8.115  17.823  0.00  0.00    +0.145 HD
ATOM     39  OE1 GLN A   5      -0.903   8.035  18.712  0.00  0.00    -0.275 OA
ENDBRANCH  34  35
ENDBRANCH  33  34
ENDBRANCH   5  33
ENDBRANCH   3   5
BRANCH   1  40
ATOM     40  CA  SER A   4       2.763   5.419  24.289  0.00  0.00    +0.178 C 
BRANCH  40  42
ATOM     41  C   ILE A   3       4.867   5.880  25.380  0.00  0.00    +0.241 C 
ATOM     42  N   SER A   4       3.547   5.729  25.474  0.00  0.00    -0.295 N 
ATOM     43  H   SER A   4       3.077   5.833  26.396  0.00  0.00    +0.150 HD
ATOM     44  O   ILE A   3       5.470   5.810  24.302  0.00  0.00    -0.273 OA
BRANCH  41  45
ATOM     45  CA  ILE A   3       5.637   6.127  26.675  0.00  0.00    +0.149 C 
BRANCH  45  48
ATOM     46  C   ALA A   2       6.706   4.098  27.508  0.00  0.00    +0.241 C 
ATOM     47  O   ALA A   2       5.971   4.057  28.512  0.00  0.00    -0.273 OA
ATOM     48  N   ILE A   3       6.652   5.081  26.611  0.00  0.00    -0.297 N 
ATOM     49  H   ILE A   3       7.353   5.104  25.843  0.00  0.00    +0.150 HD
BRANCH  46  50
ATOM     50  CA  ALA A   2       7.755   3.011  27.245  0.00  0.00    +0.149 C 
ATOM     51  CB  ALA A   2       8.074   2.232  28.526  0.00  0.00    +0.031 C 
BRANCH  50  53
ATOM     52  C   PHE A   1       9.210   3.138  25.342  0.00  0.00    +0.239 C 
ATOM     53  N   ALA A   2       9.001   3.431  26.618  0.00  0.00    -0.297 N 
ATOM     54  H   ALA A   2       9.716   3.953  27.163  0.00  0.00    +0.150 HD
ATOM     55  O   PHE A   1       8.351   2.588  24.650  0.00  0.00    -0.274 OA
BRANCH  52  56
ATOM     56  CA  PHE A   1      10.560   3.530  24.736  0.00  0.00    +0.149 C 
BRANCH  56  57
ATOM     57  N   PHE A   1      11.181   2.278  24.311  0.00  0.00    -0.238 NA
ATOM     58  H   PHE A   1      11.263   2.077  23.294  0.00  0.00    +0.142 HD
ENDBRANCH  56  57
BRANCH  56  59
ATOM     59  CB  PHE A   1      10.348   4.418  23.519  0.00  0.00    +0.053 C 
BRANCH  59  60
ATOM     60  CG  PHE A   1       9.775   5.766  23.834  0.00  0.00    -0.020 A 
ATOM     61  CD2 PHE A   1      10.432   6.630  24.714  0.00  0.00    -0.004 A 
ATOM     62  CE2 PHE A   1       9.955   7.925  24.939  0.00  0.00    -0.000 A 
ATOM     63  CZ  PHE A   1       8.807   8.362  24.280  0.00  0.00    -0.000 A 
ATOM     64  CE1 PHE A   1       8.137   7.492  23.398  0.00  0.00    -0.000 A 
ATOM     65  CD1 PHE A   1       8.625   6.209  23.185  0.00  0.00    -0.004 A 
ENDBRANCH  59  60
ENDBRANCH  56  59
ENDBRANCH  52  56
ENDBRANCH  50  53
ENDBRANCH  46  50
ENDBRANCH  45  48
BRANCH  45  66
ATOM     66  CB  ILE A   3       6.250   7.535  26.684  0.00  0.00    +0.027 C 
ATOM     67  CG2 ILE A   3       5.142   8.581  26.589  0.00  0.00    +0.002 C 
BRANCH  66  68
ATOM     68  CG1 ILE A   3       7.083   7.726  27.966  0.00  0.00    +0.002 C 
ATOM     69  CD1 ILE A   3       7.716   9.127  28.105  0.00  0.00    +0.000 C 
ENDBRANCH  66  68
ENDBRANCH  45  66
ENDBRANCH  41  45
ENDBRANCH  40  42
BRANCH  40  70
ATOM     70  CB  SER A   4       2.633   3.897  24.164  0.00  0.00    +0.166 C 
BRANCH  70  71
ATOM     71  OG  SER A   4       2.119   3.323  25.356  0.00  0.00    -0.380 OA
ATOM     72  H   SER A   4       1.224   3.702  25.544  0.00  0.00    +0.211 HD
ENDBRANCH  70  71
ENDBRANCH  40  70
ENDBRANCH   1  40
TORSDOF 31
REMARK  Name = ../refined-set-2016/2vkm/2vkm_pocket.pdb
REMARK  298 active torsions:
REMARK  status: ('A' for Active; 'I' for Inactive)
REMARK    1  A    between atoms: _1  and  _3
REMARK    2  A    between atoms: _3  and  _4
REMARK    3  A    between atoms: _6  and  _8
REMARK    4  A    between atoms: _8  and  _9
REMARK    5  A    between atoms: _8  and  _11
REMARK    6  A    between atoms: _11  and  _12
REMARK    7  A    between atoms: _12  and  _13
REMARK    8  A    between atoms: _13  and  _14
REMARK    9  A    between atoms: _14  and  _15
REMARK   10  A    between atoms: _19  and  _21
REMARK   11  A    between atoms: _21  and  _22
REMARK   12  A    between atoms: _21  and  _24
REMARK   13  A    between atoms: _24  and  _25
REMARK   14  A    between atoms: _27  and  _29
REMARK   15  A    between atoms: _29  and  _30
REMARK   16  A    between atoms: _32  and  _34
REMARK   17  A    between atoms: _34  and  _35
REMARK   18  A    between atoms: _34  and  _37
REMARK   19  A    between atoms: _37  and  _38
REMARK   20  A    between atoms: _38  and  _39
REMARK   21  A    between atoms: _44  and  _46
REMARK   22  A    between atoms: _46  and  _47
REMARK   23  A    between atoms: _49  and  _51
REMARK   24  A    between atoms: _51  and  _52
REMARK   25  A    between atoms: _51  and  _54
REMARK   26  A    between atoms: _54  and  _55
REMARK   27  A    between atoms: _60  and  _61
REMARK   28  A    between atoms: _63  and  _65
REMARK   29  A    between atoms: _65  and  _66
REMARK   30  A    between atoms: _65  and  _68
REMARK   31  A    between atoms: _68  and  _69
REMARK   32  A    between atoms: _74  and  _75
REMARK   33  A    between atoms: _77  and  _79
REMARK   34  A    between atoms: _79  and  _80
REMARK   35  A    between atoms: _79  and  _82
REMARK   36  A    between atoms: _82  and  _83
REMARK   37  A    between atoms: _86  and  _88
REMARK   38  A    between atoms: _88  and  _89
REMARK   39  A    between atoms: _88  and  _91
REMARK   40  A    between atoms: _94  and  _96
REMARK   41  A    between atoms: _96  and  _97
REMARK   42  A    between atoms: _96  and  _99
REMARK   43  A    between atoms: _99  and  _100
REMARK   44  A    between atoms: _103  and  _105
REMARK   45  A    between atoms: _105  and  _106
REMARK   46  A    between atoms: _105  and  _108
REMARK   47  A    between atoms: _108  and  _109
REMARK   48  A    between atoms: _112  and  _114
REMARK   49  A    between atoms: _114  and  _115
REMARK   50  A    between atoms: _117  and  _119
REMARK   51  A    between atoms: _119  and  _120
REMARK   52  A    between atoms: _119  and  _122
REMARK   53  A    between atoms: _122  and  _123
REMARK   54  A    between atoms: _125  and  _127
REMARK   55  A    between atoms: _127  and  _128
REMARK   56  A    between atoms: _127  and  _130
REMARK   57  A    between atoms: _130  and  _131
REMARK   58  A    between atoms: _133  and  _135
REMARK   59  A    between atoms: _135  and  _136
REMARK   60  A    between atoms: _135  and  _138
REMARK   61  A    between atoms: _138  and  _139
REMARK   62  A    between atoms: _144  and  _146
REMARK   63  A    between atoms: _146  and  _147
REMARK   64  A    between atoms: _146  and  _149
REMARK   65  A    between atoms: _153  and  _154
REMARK   66  A    between atoms: _159  and  _161
REMARK   67  A    between atoms: _161  and  _162
REMARK   68  A    between atoms: _161  and  _164
REMARK   69  A    between atoms: _164  and  _165
REMARK   70  A    between atoms: _170  and  _171
REMARK   71  A    between atoms: _173  and  _175
REMARK   72  A    between atoms: _175  and  _176
REMARK   73  A    between atoms: _175  and  _178
REMARK   74  A    between atoms: _178  and  _179
REMARK   75  A    between atoms: _182  and  _184
REMARK   76  A    between atoms: _184  and  _185
REMARK   77  A    between atoms: _184  and  _187
REMARK   78  A    between atoms: _187  and  _188
REMARK   79  A    between atoms: _188  and  _189
REMARK   80  A    between atoms: _194  and  _196
REMARK   81  A    between atoms: _196  and  _197
REMARK   82  A    between atoms: _199  and  _201
REMARK   83  A    between atoms: _201  and  _202
REMARK   84  A    between atoms: _201  and  _204
REMARK   85  A    between atoms: _204  and  _205
REMARK   86  A    between atoms: _205  and  _206
REMARK   87  A    between atoms: _206  and  _207
REMARK   88  A    between atoms: _207  and  _208
REMARK   89  A    between atoms: _212  and  _214
REMARK   90  A    between atoms: _214  and  _215
REMARK   91  A    between atoms: _214  and  _217
REMARK   92  A    between atoms: _217  and  _218
REMARK   93  A    between atoms: _228  and  _230
REMARK   94  A    between atoms: _230  and  _231
REMARK   95  A    between atoms: _230  and  _233
REMARK   96  A    between atoms: _233  and  _234
REMARK   97  A    between atoms: _237  and  _239
REMARK   98  A    between atoms: _239  and  _240
REMARK   99  A    between atoms: _239  and  _242
REMARK  100  A    between atoms: _242  and  _243
REMARK  101  A    between atoms: _243  and  _244
REMARK  102  A    between atoms: _244  and  _245
REMARK  103  A    between atoms: _245  and  _246
REMARK  104  A    between atoms: _250  and  _252
REMARK  105  A    between atoms: _252  and  _253
REMARK  106  A    between atoms: _252  and  _255
REMARK  107  A    between atoms: _255  and  _256
REMARK  108  A    between atoms: _262  and  _264
REMARK  109  A    between atoms: _264  and  _265
REMARK  110  A    between atoms: _264  and  _267
REMARK  111  A    between atoms: _267  and  _268
REMARK  112  A    between atoms: _274  and  _276
REMARK  113  A    between atoms: _276  and  _277
REMARK  114  A    between atoms: _276  and  _279
REMARK  115  A    between atoms: _279  and  _280
REMARK  116  A    between atoms: _283  and  _285
REMARK  117  A    between atoms: _285  and  _286
REMARK  118  A    between atoms: _285  and  _288
REMARK  119  A    between atoms: _288  and  _289
REMARK  120  A    between atoms: _291  and  _293
REMARK  121  A    between atoms: _293  and  _294
REMARK  122  A    between atoms: _293  and  _296
REMARK  123  A    between atoms: _296  and  _297
REMARK  124  A    between atoms: _307  and  _309
REMARK  125  A    between atoms: _309  and  _310
REMARK  126  A    between atoms: _312  and  _314
REMARK  127  A    between atoms: _314  and  _315
REMARK  128  A    between atoms: _314  and  _317
REMARK  129  A    between atoms: _317  and  _318
REMARK  130  A    between atoms: _321  and  _323
REMARK  131  A    between atoms: _323  and  _324
REMARK  132  A    between atoms: _323  and  _326
REMARK  133  A    between atoms: _326  and  _327
REMARK  134  A    between atoms: _330  and  _332
REMARK  135  A    between atoms: _332  and  _333
REMARK  136  A    between atoms: _335  and  _337
REMARK  137  A    between atoms: _337  and  _338
REMARK  138  A    between atoms: _337  and  _340
REMARK  139  A    between atoms: _340  and  _341
REMARK  140  A    between atoms: _344  and  _346
REMARK  141  A    between atoms: _346  and  _347
REMARK  142  A    between atoms: _350  and  _352
REMARK  143  A    between atoms: _352  and  _353
REMARK  144  A    between atoms: _352  and  _355
REMARK  145  A    between atoms: _355  and  _356
REMARK  146  A    between atoms: _361  and  _362
REMARK  147  A    between atoms: _364  and  _366
REMARK  148  A    between atoms: _366  and  _367
REMARK  149  A    between atoms: _370  and  _372
REMARK  150  A    between atoms: _372  and  _373
REMARK  151  A    between atoms: _372  and  _375
REMARK  152  A    between atoms: _375  and  _376
REMARK  153  A    between atoms: _376  and  _377
REMARK  154  A    between atoms: _380  and  _382
REMARK  155  A    between atoms: _382  and  _383
REMARK  156  A    between atoms: _382  and  _385
REMARK  157  A    between atoms: _385  and  _386
REMARK  158  A    between atoms: _389  and  _391
REMARK  159  A    between atoms: _391  and  _392
REMARK  160  A    between atoms: _395  and  _397
REMARK  161  A    between atoms: _397  and  _398
REMARK  162  A    between atoms: _397  and  _400
REMARK  163  A    between atoms: _400  and  _401
REMARK  164  A    between atoms: _401  and  _402
REMARK  165  A    between atoms: _402  and  _403
REMARK  166  A    between atoms: _412  and  _414
REMARK  167  A    between atoms: _414  and  _415
REMARK  168  A    between atoms: _414  and  _417
REMARK  169  A    between atoms: _417  and  _418
REMARK  170  A    between atoms: _421  and  _423
REMARK  171  A    between atoms: _423  and  _424
REMARK  172  A    between atoms: _426  and  _428
REMARK  173  A    between atoms: _428  and  _429
REMARK  174  A    between atoms: _428  and  _431
REMARK  175  A    between atoms: _431  and  _432
REMARK  176  A    between atoms: _442  and  _444
REMARK  177  A    between atoms: _444  and  _445
REMARK  178  A    between atoms: _444  and  _447
REMARK  179  A    between atoms: _447  and  _448
REMARK  180  A    between atoms: _453  and  _454
REMARK  181  A    between atoms: _456  and  _458
REMARK  182  A    between atoms: _458  and  _459
REMARK  183  A    between atoms: _458  and  _461
REMARK  184  A    between atoms: _461  and  _462
REMARK  185  A    between atoms: _467  and  _468
REMARK  186  A    between atoms: _470  and  _472
REMARK  187  A    between atoms: _472  and  _473
REMARK  188  A    between atoms: _472  and  _475
REMARK  189  A    between atoms: _475  and  _476
REMARK  190  A    between atoms: _476  and  _477
REMARK  191  A    between atoms: _477  and  _478
REMARK  192  A    between atoms: _478  and  _479
REMARK  193  A    between atoms: _483  and  _485
REMARK  194  A    between atoms: _485  and  _486
REMARK  195  A    between atoms: _485  and  _488
REMARK  196  A    between atoms: _488  and  _489
REMARK  197  A    between atoms: _492  and  _494
REMARK  198  A    between atoms: _494  and  _495
REMARK  199  A    between atoms: _494  and  _497
REMARK  200  A    between atoms: _500  and  _502
REMARK  201  A    between atoms: _502  and  _503
REMARK  202  A    between atoms: _502  and  _505
REMARK  203  A    between atoms: _505  and  _506
REMARK  204  A    between atoms: _509  and  _511
REMARK  205  A    between atoms: _511  and  _512
REMARK  206  A    between atoms: _511  and  _514
REMARK  207  A    between atoms: _514  and  _515
REMARK  208  A    between atoms: _517  and  _519
REMARK  209  A    between atoms: _519  and  _520
REMARK  210  A    between atoms: _522  and  _524
REMARK  211  A    between atoms: _524  and  _525
REMARK  212  A    between atoms: _524  and  _527
REMARK  213  A    between atoms: _527  and  _528
REMARK  214  A    between atoms: _531  and  _533
REMARK  215  A    between atoms: _533  and  _534
REMARK  216  A    between atoms: _533  and  _536
REMARK  217  A    between atoms: _536  and  _537
REMARK  218  A    between atoms: _540  and  _542
REMARK  219  A    between atoms: _542  and  _543
REMARK  220  A    between atoms: _542  and  _545
REMARK  221  A    between atoms: _545  and  _546
REMARK  222  A    between atoms: _551  and  _553
REMARK  223  A    between atoms: _553  and  _554
REMARK  224  A    between atoms: _553  and  _556
REMARK  225  A    between atoms: _556  and  _557
REMARK  226  A    between atoms: _560  and  _562
REMARK  227  A    between atoms: _562  and  _563
REMARK  228  A    between atoms: _562  and  _565
REMARK  229  A    between atoms: _565  and  _566
REMARK  230  A    between atoms: _566  and  _567
REMARK  231  A    between atoms: _567  and  _568
REMARK  232  A    between atoms: _577  and  _579
REMARK  233  A    between atoms: _579  and  _580
REMARK  234  A    between atoms: _579  and  _582
REMARK  235  A    between atoms: _582  and  _583
REMARK  236  A    between atoms: _586  and  _588
REMARK  237  A    between atoms: _588  and  _589
REMARK  238  A    between atoms: _588  and  _591
REMARK  239  A    between atoms: _591  and  _592
REMARK  240  A    between atoms: _595  and  _597
REMARK  241  A    between atoms: _597  and  _598
REMARK  242  A    between atoms: _600  and  _602
REMARK  243  A    between atoms: _602  and  _603
REMARK  244  A    between atoms: _602  and  _605
REMARK  245  A    between atoms: _605  and  _606
REMARK  246  A    between atoms: _606  and  _607
REMARK  247  A    between atoms: _607  and  _608
REMARK  248  A    between atoms: _617  and  _619
REMARK  249  A    between atoms: _619  and  _620
REMARK  250  A    between atoms: _619  and  _622
REMARK  251  A    between atoms: _622  and  _623
REMARK  252  A    between atoms: _629  and  _631
REMARK  253  A    between atoms: _631  and  _632
REMARK  254  A    between atoms: _635  and  _637
REMARK  255  A    between atoms: _637  and  _638
REMARK  256  A    between atoms: _637  and  _640
REMARK  257  A    between atoms: _640  and  _641
REMARK  258  A    between atoms: _644  and  _646
REMARK  259  A    between atoms: _646  and  _647
REMARK  260  A    between atoms: _646  and  _649
REMARK  261  A    between atoms: _649  and  _650
REMARK  262  A    between atoms: _652  and  _654
REMARK  263  A    between atoms: _654  and  _655
REMARK  264  A    between atoms: _654  and  _657
REMARK  265  A    between atoms: _657  and  _658
REMARK  266  A    between atoms: _658  and  _659
REMARK  267  A    between atoms: _664  and  _666
REMARK  268  A    between atoms: _666  and  _667
REMARK  269  A    between atoms: _666  and  _669
REMARK  270  A    between atoms: _669  and  _670
REMARK  271  A    between atoms: _672  and  _674
REMARK  272  A    between atoms: _674  and  _675
REMARK  273  A    between atoms: _674  and  _677
REMARK  274  A    between atoms: _677  and  _678
REMARK  275  A    between atoms: _680  and  _682
REMARK  276  A    between atoms: _682  and  _683
REMARK  277  A    between atoms: _682  and  _685
REMARK  278  A    between atoms: _685  and  _686
REMARK  279  A    between atoms: _689  and  _691
REMARK  280  A    between atoms: _691  and  _692
REMARK  281  A    between atoms: _691  and  _694
REMARK  282  A    between atoms: _697  and  _699
REMARK  283  A    between atoms: _699  and  _700
REMARK  284  A    between atoms: _702  and  _704
REMARK  285  A    between atoms: _704  and  _705
REMARK  286  A    between atoms: _708  and  _710
REMARK  287  A    between atoms: _710  and  _711
REMARK  288  A    between atoms: _710  and  _713
REMARK  289  A    between atoms: _716  and  _718
REMARK  290  A    between atoms: _718  and  _719
REMARK  291  A    between atoms: _718  and  _721
REMARK  292  A    between atoms: _721  and  _722
REMARK  293  A    between atoms: _722  and  _723
REMARK  294  A    between atoms: _725  and  _727
REMARK  295  A    between atoms: _727  and  _728
REMARK  296  A    between atoms: _727  and  _730
REMARK  297  A    between atoms: _730  and  _731
REMARK  298  A    between atoms: _731  and  _732
REMARK                            x       y       z     vdW  Elec       q    Type
REMARK                         _______ _______ _______ _____ _____    ______ ____
ROOT
ATOM      1  CA  VAL A   1      -2.652   5.867  32.203  0.00  0.00    +0.133 C 
ENDROOT
BRANCH   1   2
ATOM      2  CB  VAL A   1      -2.739   4.524  31.413  0.00  0.00    +0.023 C 
ATOM      3  CG2 VAL A   1      -2.558   3.369  32.363  0.00  0.00    +0.002 C 
ATOM      4  CG1 VAL A   1      -4.090   4.398  30.689  0.00  0.00    +0.002 C 
ENDBRANCH   1   2
BRANCH   1   5
ATOM      5  N   VAL A   1      -2.819   7.040  31.357  0.00  0.00    -0.239 NA
ATOM      6  H   VAL A   1      -2.114   7.240  30.619  0.00  0.00    +0.142 HD
ENDBRANCH   1   5
BRANCH   1   7
ATOM      7  C   VAL A   1      -1.261   6.002  32.813  0.00  0.00    +0.224 C 
ATOM      8  O   VAL A   1      -0.245   5.967  32.107  0.00  0.00    -0.287 OA
ENDBRANCH   1   7
TORSDOF 3
REMARK  Name = ../refined-set-2016/2vkm/2vkm_pocket.pdb
REMARK  298 active torsions:
REMARK  status: ('A' for Active; 'I' for Inactive)
REMARK    1  A    between atoms: _1  and  _3
REMARK    2  A    between atoms: _3  and  _4
REMARK    3  A    between atoms: _6  and  _8
REMARK    4  A    between atoms: _8  and  _9
REMARK    5  A    between atoms: _8  and  _11
REMARK    6  A    between atoms: _11  and  _12
REMARK    7  A    between atoms: _12  and  _13
REMARK    8  A    between atoms: _13  and  _14
REMARK    9  A    between atoms: _14  and  _15
REMARK   10  A    between atoms: _19  and  _21
REMARK   11  A    between atoms: _21  and  _22
REMARK   12  A    between atoms: _21  and  _24
REMARK   13  A    between atoms: _24  and  _25
REMARK   14  A    between atoms: _27  and  _29
REMARK   15  A    between atoms: _29  and  _30
REMARK   16  A    between atoms: _32  and  _34
REMARK   17  A    between atoms: _34  and  _35
REMARK   18  A    between atoms: _34  and  _37
REMARK   19  A    between atoms: _37  and  _38
REMARK   20  A    between atoms: _38  and  _39
REMARK   21  A    between atoms: _44  and  _46
REMARK   22  A    between atoms: _46  and  _47
REMARK   23  A    between atoms: _49  and  _51
REMARK   24  A    between atoms: _51  and  _52
REMARK   25  A    between atoms: _51  and  _54
REMARK   26  A    between atoms: _54  and  _55
REMARK   27  A    between atoms: _60  and  _61
REMARK   28  A    between atoms: _63  and  _65
REMARK   29  A    between atoms: _65  and  _66
REMARK   30  A    between atoms: _65  and  _68
REMARK   31  A    between atoms: _68  and  _69
REMARK   32  A    between atoms: _74  and  _75
REMARK   33  A    between atoms: _77  and  _79
REMARK   34  A    between atoms: _79  and  _80
REMARK   35  A    between atoms: _79  and  _82
REMARK   36  A    between atoms: _82  and  _83
REMARK   37  A    between atoms: _86  and  _88
REMARK   38  A    between atoms: _88  and  _89
REMARK   39  A    between atoms: _88  and  _91
REMARK   40  A    between atoms: _94  and  _96
REMARK   41  A    between atoms: _96  and  _97
REMARK   42  A    between atoms: _96  and  _99
REMARK   43  A    between atoms: _99  and  _100
REMARK   44  A    between atoms: _103  and  _105
REMARK   45  A    between atoms: _105  and  _106
REMARK   46  A    between atoms: _105  and  _108
REMARK   47  A    between atoms: _108  and  _109
REMARK   48  A    between atoms: _112  and  _114
REMARK   49  A    between atoms: _114  and  _115
REMARK   50  A    between atoms: _117  and  _119
REMARK   51  A    between atoms: _119  and  _120
REMARK   52  A    between atoms: _119  and  _122
REMARK   53  A    between atoms: _122  and  _123
REMARK   54  A    between atoms: _125  and  _127
REMARK   55  A    between atoms: _127  and  _128
REMARK   56  A    between atoms: _127  and  _130
REMARK   57  A    between atoms: _130  and  _131
REMARK   58  A    between atoms: _133  and  _135
REMARK   59  A    between atoms: _135  and  _136
REMARK   60  A    between atoms: _135  and  _138
REMARK   61  A    between atoms: _138  and  _139
REMARK   62  A    between atoms: _144  and  _146
REMARK   63  A    between atoms: _146  and  _147
REMARK   64  A    between atoms: _146  and  _149
REMARK   65  A    between atoms: _153  and  _154
REMARK   66  A    between atoms: _159  and  _161
REMARK   67  A    between atoms: _161  and  _162
REMARK   68  A    between atoms: _161  and  _164
REMARK   69  A    between atoms: _164  and  _165
REMARK   70  A    between atoms: _170  and  _171
REMARK   71  A    between atoms: _173  and  _175
REMARK   72  A    between atoms: _175  and  _176
REMARK   73  A    between atoms: _175  and  _178
REMARK   74  A    between atoms: _178  and  _179
REMARK   75  A    between atoms: _182  and  _184
REMARK   76  A    between atoms: _184  and  _185
REMARK   77  A    between atoms: _184  and  _187
REMARK   78  A    between atoms: _187  and  _188
REMARK   79  A    between atoms: _188  and  _189
REMARK   80  A    between atoms: _194  and  _196
REMARK   81  A    between atoms: _196  and  _197
REMARK   82  A    between atoms: _199  and  _201
REMARK   83  A    between atoms: _201  and  _202
REMARK   84  A    between atoms: _201  and  _204
REMARK   85  A    between atoms: _204  and  _205
REMARK   86  A    between atoms: _205  and  _206
REMARK   87  A    between atoms: _206  and  _207
REMARK   88  A    between atoms: _207  and  _208
REMARK   89  A    between atoms: _212  and  _214
REMARK   90  A    between atoms: _214  and  _215
REMARK   91  A    between atoms: _214  and  _217
REMARK   92  A    between atoms: _217  and  _218
REMARK   93  A    between atoms: _228  and  _230
REMARK   94  A    between atoms: _230  and  _231
REMARK   95  A    between atoms: _230  and  _233
REMARK   96  A    between atoms: _233  and  _234
REMARK   97  A    between atoms: _237  and  _239
REMARK   98  A    between atoms: _239  and  _240
REMARK   99  A    between atoms: _239  and  _242
REMARK  100  A    between atoms: _242  and  _243
REMARK  101  A    between atoms: _243  and  _244
REMARK  102  A    between atoms: _244  and  _245
REMARK  103  A    between atoms: _245  and  _246
REMARK  104  A    between atoms: _250  and  _252
REMARK  105  A    between atoms: _252  and  _253
REMARK  106  A    between atoms: _252  and  _255
REMARK  107  A    between atoms: _255  and  _256
REMARK  108  A    between atoms: _262  and  _264
REMARK  109  A    between atoms: _264  and  _265
REMARK  110  A    between atoms: _264  and  _267
REMARK  111  A    between atoms: _267  and  _268
REMARK  112  A    between atoms: _274  and  _276
REMARK  113  A    between atoms: _276  and  _277
REMARK  114  A    between atoms: _276  and  _279
REMARK  115  A    between atoms: _279  and  _280
REMARK  116  A    between atoms: _283  and  _285
REMARK  117  A    between atoms: _285  and  _286
REMARK  118  A    between atoms: _285  and  _288
REMARK  119  A    between atoms: _288  and  _289
REMARK  120  A    between atoms: _291  and  _293
REMARK  121  A    between atoms: _293  and  _294
REMARK  122  A    between atoms: _293  and  _296
REMARK  123  A    between atoms: _296  and  _297
REMARK  124  A    between atoms: _307  and  _309
REMARK  125  A    between atoms: _309  and  _310
REMARK  126  A    between atoms: _312  and  _314
REMARK  127  A    between atoms: _314  and  _315
REMARK  128  A    between atoms: _314  and  _317
REMARK  129  A    between atoms: _317  and  _318
REMARK  130  A    between atoms: _321  and  _323
REMARK  131  A    between atoms: _323  and  _324
REMARK  132  A    between atoms: _323  and  _326
REMARK  133  A    between atoms: _326  and  _327
REMARK  134  A    between atoms: _330  and  _332
REMARK  135  A    between atoms: _332  and  _333
REMARK  136  A    between atoms: _335  and  _337
REMARK  137  A    between atoms: _337  and  _338
REMARK  138  A    between atoms: _337  and  _340
REMARK  139  A    between atoms: _340  and  _341
REMARK  140  A    between atoms: _344  and  _346
REMARK  141  A    between atoms: _346  and  _347
REMARK  142  A    between atoms: _350  and  _352
REMARK  143  A    between atoms: _352  and  _353
REMARK  144  A    between atoms: _352  and  _355
REMARK  145  A    between atoms: _355  and  _356
REMARK  146  A    between atoms: _361  and  _362
REMARK  147  A    between atoms: _364  and  _366
REMARK  148  A    between atoms: _366  and  _367
REMARK  149  A    between atoms: _370  and  _372
REMARK  150  A    between atoms: _372  and  _373
REMARK  151  A    between atoms: _372  and  _375
REMARK  152  A    between atoms: _375  and  _376
REMARK  153  A    between atoms: _376  and  _377
REMARK  154  A    between atoms: _380  and  _382
REMARK  155  A    between atoms: _382  and  _383
REMARK  156  A    between atoms: _382  and  _385
REMARK  157  A    between atoms: _385  and  _386
REMARK  158  A    between atoms: _389  and  _391
REMARK  159  A    between atoms: _391  and  _392
REMARK  160  A    between atoms: _395  and  _397
REMARK  161  A    between atoms: _397  and  _398
REMARK  162  A    between atoms: _397  and  _400
REMARK  163  A    between atoms: _400  and  _401
REMARK  164  A    between atoms: _401  and  _402
REMARK  165  A    between atoms: _402  and  _403
REMARK  166  A    between atoms: _412  and  _414
REMARK  167  A    between atoms: _414  and  _415
REMARK  168  A    between atoms: _414  and  _417
REMARK  169  A    between atoms: _417  and  _418
REMARK  170  A    between atoms: _421  and  _423
REMARK  171  A    between atoms: _423  and  _424
REMARK  172  A    between atoms: _426  and  _428
REMARK  173  A    between atoms: _428  and  _429
REMARK  174  A    between atoms: _428  and  _431
REMARK  175  A    between atoms: _431  and  _432
REMARK  176  A    between atoms: _442  and  _444
REMARK  177  A    between atoms: _444  and  _445
REMARK  178  A    between atoms: _444  and  _447
REMARK  179  A    between atoms: _447  and  _448
REMARK  180  A    between atoms: _453  and  _454
REMARK  181  A    between atoms: _456  and  _458
REMARK  182  A    between atoms: _458  and  _459
REMARK  183  A    between atoms: _458  and  _461
REMARK  184  A    between atoms: _461  and  _462
REMARK  185  A    between atoms: _467  and  _468
REMARK  186  A    between atoms: _470  and  _472
REMARK  187  A    between atoms: _472  and  _473
REMARK  188  A    between atoms: _472  and  _475
REMARK  189  A    between atoms: _475  and  _476
REMARK  190  A    between atoms: _476  and  _477
REMARK  191  A    between atoms: _477  and  _478
REMARK  192  A    between atoms: _478  and  _479
REMARK  193  A    between atoms: _483  and  _485
REMARK  194  A    between atoms: _485  and  _486
REMARK  195  A    between atoms: _485  and  _488
REMARK  196  A    between atoms: _488  and  _489
REMARK  197  A    between atoms: _492  and  _494
REMARK  198  A    between atoms: _494  and  _495
REMARK  199  A    between atoms: _494  and  _497
REMARK  200  A    between atoms: _500  and  _502
REMARK  201  A    between atoms: _502  and  _503
REMARK  202  A    between atoms: _502  and  _505
REMARK  203  A    between atoms: _505  and  _506
REMARK  204  A    between atoms: _509  and  _511
REMARK  205  A    between atoms: _511  and  _512
REMARK  206  A    between atoms: _511  and  _514
REMARK  207  A    between atoms: _514  and  _515
REMARK  208  A    between atoms: _517  and  _519
REMARK  209  A    between atoms: _519  and  _520
REMARK  210  A    between atoms: _522  and  _524
REMARK  211  A    between atoms: _524  and  _525
REMARK  212  A    between atoms: _524  and  _527
REMARK  213  A    between atoms: _527  and  _528
REMARK  214  A    between atoms: _531  and  _533
REMARK  215  A    between atoms: _533  and  _534
REMARK  216  A    between atoms: _533  and  _536
REMARK  217  A    between atoms: _536  and  _537
REMARK  218  A    between atoms: _540  and  _542
REMARK  219  A    between atoms: _542  and  _543
REMARK  220  A    between atoms: _542  and  _545
REMARK  221  A    between atoms: _545  and  _546
REMARK  222  A    between atoms: _551  and  _553
REMARK  223  A    between atoms: _553  and  _554
REMARK  224  A    between atoms: _553  and  _556
REMARK  225  A    between atoms: _556  and  _557
REMARK  226  A    between atoms: _560  and  _562
REMARK  227  A    between atoms: _562  and  _563
REMARK  228  A    between atoms: _562  and  _565
REMARK  229  A    between atoms: _565  and  _566
REMARK  230  A    between atoms: _566  and  _567
REMARK  231  A    between atoms: _567  and  _568
REMARK  232  A    between atoms: _577  and  _579
REMARK  233  A    between atoms: _579  and  _580
REMARK  234  A    between atoms: _579  and  _582
REMARK  235  A    between atoms: _582  and  _583
REMARK  236  A    between atoms: _586  and  _588
REMARK  237  A    between atoms: _588  and  _589
REMARK  238  A    between atoms: _588  and  _591
REMARK  239  A    between atoms: _591  and  _592
REMARK  240  A    between atoms: _595  and  _597
REMARK  241  A    between atoms: _597  and  _598
REMARK  242  A    between atoms: _600  and  _602
REMARK  243  A    between atoms: _602  and  _603
REMARK  244  A    between atoms: _602  and  _605
REMARK  245  A    between atoms: _605  and  _606
REMARK  246  A    between atoms: _606  and  _607
REMARK  247  A    between atoms: _607  and  _608
REMARK  248  A    between atoms: _617  and  _619
REMARK  249  A    between atoms: _619  and  _620
REMARK  250  A    between atoms: _619  and  _622
REMARK  251  A    between atoms: _622  and  _623
REMARK  252  A    between atoms: _629  and  _631
REMARK  253  A    between atoms: _631  and  _632
REMARK  254  A    between atoms: _635  and  _637
REMARK  255  A    between atoms: _637  and  _638
REMARK  256  A    between atoms: _637  and  _640
REMARK  257  A    between atoms: _640  and  _641
REMARK  258  A    between atoms: _644  and  _646
REMARK  259  A    between atoms: _646  and  _647
REMARK  260  A    between atoms: _646  and  _649
REMARK  261  A    between atoms: _649  and  _650
REMARK  262  A    between atoms: _652  and  _654
REMARK  263  A    between atoms: _654  and  _655
REMARK  264  A    between atoms: _654  and  _657
REMARK  265  A    between atoms: _657  and  _658
REMARK  266  A    between atoms: _658  and  _659
REMARK  267  A    between atoms: _664  and  _666
REMARK  268  A    between atoms: _666  and  _667
REMARK  269  A    between atoms: _666  and  _669
REMARK  270  A    between atoms: _669  and  _670
REMARK  271  A    between atoms: _672  and  _674
REMARK  272  A    between atoms: _674  and  _675
REMARK  273  A    between atoms: _674  and  _677
REMARK  274  A    between atoms: _677  and  _678
REMARK  275  A    between atoms: _680  and  _682
REMARK  276  A    between atoms: _682  and  _683
REMARK  277  A    between atoms: _682  and  _685
REMARK  278  A    between atoms: _685  and  _686
REMARK  279  A    between atoms: _689  and  _691
REMARK  280  A    between atoms: _691  and  _692
REMARK  281  A    between atoms: _691  and  _694
REMARK  282  A    between atoms: _697  and  _699
REMARK  283  A    between atoms: _699  and  _700
REMARK  284  A    between atoms: _702  and  _704
REMARK  285  A    between atoms: _704  and  _705
REMARK  286  A    between atoms: _708  and  _710
REMARK  287  A    between atoms: _710  and  _711
REMARK  288  A    between atoms: _710  and  _713
REMARK  289  A    between atoms: _716  and  _718
REMARK  290  A    between atoms: _718  and  _719
REMARK  291  A    between atoms: _718  and  _721
REMARK  292  A    between atoms: _721  and  _722
REMARK  293  A    between atoms: _722  and  _723
REMARK  294  A    between atoms: _725  and  _727
REMARK  295  A    between atoms: _727  and  _728
REMARK  296  A    between atoms: _727  and  _730
REMARK  297  A    between atoms: _730  and  _731
REMARK  298  A    between atoms: _731  and  _732
REMARK                            x       y       z     vdW  Elec       q    Type
REMARK                         _______ _______ _______ _____ _____    ______ ____
ROOT
ATOM      1  C   ALA A   2       5.780   2.205  35.569  0.00  0.00    +0.241 C 
ATOM      2  O   ALA A   2       6.653   2.412  36.413  0.00  0.00    -0.273 OA
ATOM      3  N   VAL A   3       5.753   2.835  34.400  0.00  0.00    -0.298 N 
ATOM      4  H   VAL A   3       4.998   2.624  33.717  0.00  0.00    +0.150 HD
ENDROOT
BRANCH   1   5
ATOM      5  CA  ALA A   2       4.673   1.192  35.842  0.00  0.00    +0.149 C 
ATOM      6  CB  ALA A   2       5.127  -0.210  35.455  0.00  0.00    +0.031 C 
BRANCH   5   9
ATOM      7  C   GLY A   1       2.796   2.675  35.366  0.00  0.00    +0.240 C 
ATOM      8  O   GLY A   1       3.240   3.579  36.070  0.00  0.00    -0.274 OA
ATOM      9  N   ALA A   2       3.421   1.509  35.182  0.00  0.00    -0.297 N 
ATOM     10  H   ALA A   2       2.996   0.806  34.545  0.00  0.00    +0.150 HD
BRANCH   7  11
ATOM     11  CA  GLY A   1       1.480   2.841  34.629  0.00  0.00    +0.169 C 
BRANCH  11  12
ATOM     12  N   GLY A   1       1.079   4.203  34.368  0.00  0.00    -0.236 NA
ATOM     13  H   GLY A   1       1.323   4.636  33.455  0.00  0.00    +0.142 HD
ENDBRANCH  11  12
ENDBRANCH   7  11
ENDBRANCH   5   9
ENDBRANCH   1   5
BRANCH   3  14
ATOM     14  CA  VAL A   3       6.771   3.817  34.070  0.00  0.00    +0.137 C 
BRANCH  14  15
ATOM     15  CB  VAL A   3       6.543   4.404  32.666  0.00  0.00    +0.026 C 
ATOM     16  CG2 VAL A   3       7.321   5.725  32.508  0.00  0.00    +0.002 C 
ATOM     17  CG1 VAL A   3       7.011   3.370  31.611  0.00  0.00    +0.002 C 
ENDBRANCH  14  15
BRANCH  14  18
ATOM     18  C   VAL A   3       6.742   4.915  35.127  0.00  0.00    +0.227 C 
ATOM     19  O   VAL A   3       7.780   5.458  35.512  0.00  0.00    -0.286 OA
ENDBRANCH  14  18
ENDBRANCH   3  14
TORSDOF 7
REMARK  Name = ../refined-set-2016/2vkm/2vkm_pocket.pdb
REMARK  298 active torsions:
REMARK  status: ('A' for Active; 'I' for Inactive)
REMARK    1  A    between atoms: _1  and  _3
REMARK    2  A    between atoms: _3  and  _4
REMARK    3  A    between atoms: _6  and  _8
REMARK    4  A    between atoms: _8  and  _9
REMARK    5  A    between atoms: _8  and  _11
REMARK    6  A    between atoms: _11  and  _12
REMARK    7  A    between atoms: _12  and  _13
REMARK    8  A    between atoms: _13  and  _14
REMARK    9  A    between atoms: _14  and  _15
REMARK   10  A    between atoms: _19  and  _21
REMARK   11  A    between atoms: _21  and  _22
REMARK   12  A    between atoms: _21  and  _24
REMARK   13  A    between atoms: _24  and  _25
REMARK   14  A    between atoms: _27  and  _29
REMARK   15  A    between atoms: _29  and  _30
REMARK   16  A    between atoms: _32  and  _34
REMARK   17  A    between atoms: _34  and  _35
REMARK   18  A    between atoms: _34  and  _37
REMARK   19  A    between atoms: _37  and  _38
REMARK   20  A    between atoms: _38  and  _39
REMARK   21  A    between atoms: _44  and  _46
REMARK   22  A    between atoms: _46  and  _47
REMARK   23  A    between atoms: _49  and  _51
REMARK   24  A    between atoms: _51  and  _52
REMARK   25  A    between atoms: _51  and  _54
REMARK   26  A    between atoms: _54  and  _55
REMARK   27  A    between atoms: _60  and  _61
REMARK   28  A    between atoms: _63  and  _65
REMARK   29  A    between atoms: _65  and  _66
REMARK   30  A    between atoms: _65  and  _68
REMARK   31  A    between atoms: _68  and  _69
REMARK   32  A    between atoms: _74  and  _75
REMARK   33  A    between atoms: _77  and  _79
REMARK   34  A    between atoms: _79  and  _80
REMARK   35  A    between atoms: _79  and  _82
REMARK   36  A    between atoms: _82  and  _83
REMARK   37  A    between atoms: _86  and  _88
REMARK   38  A    between atoms: _88  and  _89
REMARK   39  A    between atoms: _88  and  _91
REMARK   40  A    between atoms: _94  and  _96
REMARK   41  A    between atoms: _96  and  _97
REMARK   42  A    between atoms: _96  and  _99
REMARK   43  A    between atoms: _99  and  _100
REMARK   44  A    between atoms: _103  and  _105
REMARK   45  A    between atoms: _105  and  _106
REMARK   46  A    between atoms: _105  and  _108
REMARK   47  A    between atoms: _108  and  _109
REMARK   48  A    between atoms: _112  and  _114
REMARK   49  A    between atoms: _114  and  _115
REMARK   50  A    between atoms: _117  and  _119
REMARK   51  A    between atoms: _119  and  _120
REMARK   52  A    between atoms: _119  and  _122
REMARK   53  A    between atoms: _122  and  _123
REMARK   54  A    between atoms: _125  and  _127
REMARK   55  A    between atoms: _127  and  _128
REMARK   56  A    between atoms: _127  and  _130
REMARK   57  A    between atoms: _130  and  _131
REMARK   58  A    between atoms: _133  and  _135
REMARK   59  A    between atoms: _135  and  _136
REMARK   60  A    between atoms: _135  and  _138
REMARK   61  A    between atoms: _138  and  _139
REMARK   62  A    between atoms: _144  and  _146
REMARK   63  A    between atoms: _146  and  _147
REMARK   64  A    between atoms: _146  and  _149
REMARK   65  A    between atoms: _153  and  _154
REMARK   66  A    between atoms: _159  and  _161
REMARK   67  A    between atoms: _161  and  _162
REMARK   68  A    between atoms: _161  and  _164
REMARK   69  A    between atoms: _164  and  _165
REMARK   70  A    between atoms: _170  and  _171
REMARK   71  A    between atoms: _173  and  _175
REMARK   72  A    between atoms: _175  and  _176
REMARK   73  A    between atoms: _175  and  _178
REMARK   74  A    between atoms: _178  and  _179
REMARK   75  A    between atoms: _182  and  _184
REMARK   76  A    between atoms: _184  and  _185
REMARK   77  A    between atoms: _184  and  _187
REMARK   78  A    between atoms: _187  and  _188
REMARK   79  A    between atoms: _188  and  _189
REMARK   80  A    between atoms: _194  and  _196
REMARK   81  A    between atoms: _196  and  _197
REMARK   82  A    between atoms: _199  and  _201
REMARK   83  A    between atoms: _201  and  _202
REMARK   84  A    between atoms: _201  and  _204
REMARK   85  A    between atoms: _204  and  _205
REMARK   86  A    between atoms: _205  and  _206
REMARK   87  A    between atoms: _206  and  _207
REMARK   88  A    between atoms: _207  and  _208
REMARK   89  A    between atoms: _212  and  _214
REMARK   90  A    between atoms: _214  and  _215
REMARK   91  A    between atoms: _214  and  _217
REMARK   92  A    between atoms: _217  and  _218
REMARK   93  A    between atoms: _228  and  _230
REMARK   94  A    between atoms: _230  and  _231
REMARK   95  A    between atoms: _230  and  _233
REMARK   96  A    between atoms: _233  and  _234
REMARK   97  A    between atoms: _237  and  _239
REMARK   98  A    between atoms: _239  and  _240
REMARK   99  A    between atoms: _239  and  _242
REMARK  100  A    between atoms: _242  and  _243
REMARK  101  A    between atoms: _243  and  _244
REMARK  102  A    between atoms: _244  and  _245
REMARK  103  A    between atoms: _245  and  _246
REMARK  104  A    between atoms: _250  and  _252
REMARK  105  A    between atoms: _252  and  _253
REMARK  106  A    between atoms: _252  and  _255
REMARK  107  A    between atoms: _255  and  _256
REMARK  108  A    between atoms: _262  and  _264
REMARK  109  A    between atoms: _264  and  _265
REMARK  110  A    between atoms: _264  and  _267
REMARK  111  A    between atoms: _267  and  _268
REMARK  112  A    between atoms: _274  and  _276
REMARK  113  A    between atoms: _276  and  _277
REMARK  114  A    between atoms: _276  and  _279
REMARK  115  A    between atoms: _279  and  _280
REMARK  116  A    between atoms: _283  and  _285
REMARK  117  A    between atoms: _285  and  _286
REMARK  118  A    between atoms: _285  and  _288
REMARK  119  A    between atoms: _288  and  _289
REMARK  120  A    between atoms: _291  and  _293
REMARK  121  A    between atoms: _293  and  _294
REMARK  122  A    between atoms: _293  and  _296
REMARK  123  A    between atoms: _296  and  _297
REMARK  124  A    between atoms: _307  and  _309
REMARK  125  A    between atoms: _309  and  _310
REMARK  126  A    between atoms: _312  and  _314
REMARK  127  A    between atoms: _314  and  _315
REMARK  128  A    between atoms: _314  and  _317
REMARK  129  A    between atoms: _317  and  _318
REMARK  130  A    between atoms: _321  and  _323
REMARK  131  A    between atoms: _323  and  _324
REMARK  132  A    between atoms: _323  and  _326
REMARK  133  A    between atoms: _326  and  _327
REMARK  134  A    between atoms: _330  and  _332
REMARK  135  A    between atoms: _332  and  _333
REMARK  136  A    between atoms: _335  and  _337
REMARK  137  A    between atoms: _337  and  _338
REMARK  138  A    between atoms: _337  and  _340
REMARK  139  A    between atoms: _340  and  _341
REMARK  140  A    between atoms: _344  and  _346
REMARK  141  A    between atoms: _346  and  _347
REMARK  142  A    between atoms: _350  and  _352
REMARK  143  A    between atoms: _352  and  _353
REMARK  144  A    between atoms: _352  and  _355
REMARK  145  A    between atoms: _355  and  _356
REMARK  146  A    between atoms: _361  and  _362
REMARK  147  A    between atoms: _364  and  _366
REMARK  148  A    between atoms: _366  and  _367
REMARK  149  A    between atoms: _370  and  _372
REMARK  150  A    between atoms: _372  and  _373
REMARK  151  A    between atoms: _372  and  _375
REMARK  152  A    between atoms: _375  and  _376
REMARK  153  A    between atoms: _376  and  _377
REMARK  154  A    between atoms: _380  and  _382
REMARK  155  A    between atoms: _382  and  _383
REMARK  156  A    between atoms: _382  and  _385
REMARK  157  A    between atoms: _385  and  _386
REMARK  158  A    between atoms: _389  and  _391
REMARK  159  A    between atoms: _391  and  _392
REMARK  160  A    between atoms: _395  and  _397
REMARK  161  A    between atoms: _397  and  _398
REMARK  162  A    between atoms: _397  and  _400
REMARK  163  A    between atoms: _400  and  _401
REMARK  164  A    between atoms: _401  and  _402
REMARK  165  A    between atoms: _402  and  _403
REMARK  166  A    between atoms: _412  and  _414
REMARK  167  A    between atoms: _414  and  _415
REMARK  168  A    between atoms: _414  and  _417
REMARK  169  A    between atoms: _417  and  _418
REMARK  170  A    between atoms: _421  and  _423
REMARK  171  A    between atoms: _423  and  _424
REMARK  172  A    between atoms: _426  and  _428
REMARK  173  A    between atoms: _428  and  _429
REMARK  174  A    between atoms: _428  and  _431
REMARK  175  A    between atoms: _431  and  _432
REMARK  176  A    between atoms: _442  and  _444
REMARK  177  A    between atoms: _444  and  _445
REMARK  178  A    between atoms: _444  and  _447
REMARK  179  A    between atoms: _447  and  _448
REMARK  180  A    between atoms: _453  and  _454
REMARK  181  A    between atoms: _456  and  _458
REMARK  182  A    between atoms: _458  and  _459
REMARK  183  A    between atoms: _458  and  _461
REMARK  184  A    between atoms: _461  and  _462
REMARK  185  A    between atoms: _467  and  _468
REMARK  186  A    between atoms: _470  and  _472
REMARK  187  A    between atoms: _472  and  _473
REMARK  188  A    between atoms: _472  and  _475
REMARK  189  A    between atoms: _475  and  _476
REMARK  190  A    between atoms: _476  and  _477
REMARK  191  A    between atoms: _477  and  _478
REMARK  192  A    between atoms: _478  and  _479
REMARK  193  A    between atoms: _483  and  _485
REMARK  194  A    between atoms: _485  and  _486
REMARK  195  A    between atoms: _485  and  _488
REMARK  196  A    between atoms: _488  and  _489
REMARK  197  A    between atoms: _492  and  _494
REMARK  198  A    between atoms: _494  and  _495
REMARK  199  A    between atoms: _494  and  _497
REMARK  200  A    between atoms: _500  and  _502
REMARK  201  A    between atoms: _502  and  _503
REMARK  202  A    between atoms: _502  and  _505
REMARK  203  A    between atoms: _505  and  _506
REMARK  204  A    between atoms: _509  and  _511
REMARK  205  A    between atoms: _511  and  _512
REMARK  206  A    between atoms: _511  and  _514
REMARK  207  A    between atoms: _514  and  _515
REMARK  208  A    between atoms: _517  and  _519
REMARK  209  A    between atoms: _519  and  _520
REMARK  210  A    between atoms: _522  and  _524
REMARK  211  A    between atoms: _524  and  _525
REMARK  212  A    between atoms: _524  and  _527
REMARK  213  A    between atoms: _527  and  _528
REMARK  214  A    between atoms: _531  and  _533
REMARK  215  A    between atoms: _533  and  _534
REMARK  216  A    between atoms: _533  and  _536
REMARK  217  A    between atoms: _536  and  _537
REMARK  218  A    between atoms: _540  and  _542
REMARK  219  A    between atoms: _542  and  _543
REMARK  220  A    between atoms: _542  and  _545
REMARK  221  A    between atoms: _545  and  _546
REMARK  222  A    between atoms: _551  and  _553
REMARK  223  A    between atoms: _553  and  _554
REMARK  224  A    between atoms: _553  and  _556
REMARK  225  A    between atoms: _556  and  _557
REMARK  226  A    between atoms: _560  and  _562
REMARK  227  A    between atoms: _562  and  _563
REMARK  228  A    between atoms: _562  and  _565
REMARK  229  A    between atoms: _565  and  _566
REMARK  230  A    between atoms: _566  and  _567
REMARK  231  A    between atoms: _567  and  _568
REMARK  232  A    between atoms: _577  and  _579
REMARK  233  A    between atoms: _579  and  _580
REMARK  234  A    between atoms: _579  and  _582
REMARK  235  A    between atoms: _582  and  _583
REMARK  236  A    between atoms: _586  and  _588
REMARK  237  A    between atoms: _588  and  _589
REMARK  238  A    between atoms: _588  and  _591
REMARK  239  A    between atoms: _591  and  _592
REMARK  240  A    between atoms: _595  and  _597
REMARK  241  A    between atoms: _597  and  _598
REMARK  242  A    between atoms: _600  and  _602
REMARK  243  A    between atoms: _602  and  _603
REMARK  244  A    between atoms: _602  and  _605
REMARK  245  A    between atoms: _605  and  _606
REMARK  246  A    between atoms: _606  and  _607
REMARK  247  A    between atoms: _607  and  _608
REMARK  248  A    between atoms: _617  and  _619
REMARK  249  A    between atoms: _619  and  _620
REMARK  250  A    between atoms: _619  and  _622
REMARK  251  A    between atoms: _622  and  _623
REMARK  252  A    between atoms: _629  and  _631
REMARK  253  A    between atoms: _631  and  _632
REMARK  254  A    between atoms: _635  and  _637
REMARK  255  A    between atoms: _637  and  _638
REMARK  256  A    between atoms: _637  and  _640
REMARK  257  A    between atoms: _640  and  _641
REMARK  258  A    between atoms: _644  and  _646
REMARK  259  A    between atoms: _646  and  _647
REMARK  260  A    between atoms: _646  and  _649
REMARK  261  A    between atoms: _649  and  _650
REMARK  262  A    between atoms: _652  and  _654
REMARK  263  A    between atoms: _654  and  _655
REMARK  264  A    between atoms: _654  and  _657
REMARK  265  A    between atoms: _657  and  _658
REMARK  266  A    between atoms: _658  and  _659
REMARK  267  A    between atoms: _664  and  _666
REMARK  268  A    between atoms: _666  and  _667
REMARK  269  A    between atoms: _666  and  _669
REMARK  270  A    between atoms: _669  and  _670
REMARK  271  A    between atoms: _672  and  _674
REMARK  272  A    between atoms: _674  and  _675
REMARK  273  A    between atoms: _674  and  _677
REMARK  274  A    between atoms: _677  and  _678
REMARK  275  A    between atoms: _680  and  _682
REMARK  276  A    between atoms: _682  and  _683
REMARK  277  A    between atoms: _682  and  _685
REMARK  278  A    between atoms: _685  and  _686
REMARK  279  A    between atoms: _689  and  _691
REMARK  280  A    between atoms: _691  and  _692
REMARK  281  A    between atoms: _691  and  _694
REMARK  282  A    between atoms: _697  and  _699
REMARK  283  A    between atoms: _699  and  _700
REMARK  284  A    between atoms: _702  and  _704
REMARK  285  A    between atoms: _704  and  _705
REMARK  286  A    between atoms: _708  and  _710
REMARK  287  A    between atoms: _710  and  _711
REMARK  288  A    between atoms: _710  and  _713
REMARK  289  A    between atoms: _716  and  _718
REMARK  290  A    between atoms: _718  and  _719
REMARK  291  A    between atoms: _718  and  _721
REMARK  292  A    between atoms: _721  and  _722
REMARK  293  A    between atoms: _722  and  _723
REMARK  294  A    between atoms: _725  and  _727
REMARK  295  A    between atoms: _727  and  _728
REMARK  296  A    between atoms: _727  and  _730
REMARK  297  A    between atoms: _730  and  _731
REMARK  298  A    between atoms: _731  and  _732
REMARK                            x       y       z     vdW  Elec       q    Type
REMARK                         _______ _______ _______ _____ _____    ______ ____
ROOT
ATOM      1  C   MET A   1       6.415   3.423  40.134  0.00  0.00    +0.238 C 
ATOM      2  O   MET A   1       6.679   3.403  41.337  0.00  0.00    -0.274 OA
ATOM      3  N   GLU A   2       7.287   3.016  39.207  0.00  0.00    -0.298 N 
ATOM      4  H   GLU A   2       7.014   3.031  38.204  0.00  0.00    +0.150 HD
ENDROOT
BRANCH   1   5
ATOM      5  CA  MET A   1       5.038   3.939  39.669  0.00  0.00    +0.146 C 
BRANCH   5   6
ATOM      6  N   MET A   1       4.916   4.561  38.349  0.00  0.00    -0.238 NA
ATOM      7  H   MET A   1       4.267   4.152  37.647  0.00  0.00    +0.142 HD
ENDBRANCH   5   6
BRANCH   5   8
ATOM      8  CB  MET A   1       3.983   2.848  39.790  0.00  0.00    +0.038 C 
BRANCH   8   9
ATOM      9  CG  MET A   1       2.605   3.453  39.609  0.00  0.00    +0.060 C 
BRANCH   9  10
ATOM     10  SD  MET A   1       1.270   2.361  39.932  0.00  0.00    -0.139 S 
ATOM     11  CE  MET A   1       1.436   2.172  41.750  0.00  0.00    +0.069 C 
ENDBRANCH   9  10
ENDBRANCH   8   9
ENDBRANCH   5   8
ENDBRANCH   1   5
BRANCH   3  12
ATOM     12  CA  GLU A   2       8.616   2.551  39.583  0.00  0.00    +0.137 C 
BRANCH  12  13
ATOM     13  C   GLU A   2       9.471   3.708  40.121  0.00  0.00    +0.227 C 
ATOM     14  O   GLU A   2      10.485   3.492  40.789  0.00  0.00    -0.286 OA
ENDBRANCH  12  13
BRANCH  12  15
ATOM     15  CB  GLU A   2       9.321   1.884  38.388  0.00  0.00    +0.039 C 
BRANCH  15  16
ATOM     16  CG  GLU A   2       8.699   0.538  37.963  0.00  0.00    +0.116 C 
BRANCH  16  17
ATOM     17  CD  GLU A   2       9.366  -0.067  36.737  0.00  0.00    +0.365 C 
ATOM     18  OE2 GLU A   2       8.986  -1.191  36.368  0.00  0.00    -0.246 OA
ATOM     19  OE1 GLU A   2      10.271   0.568  36.141  0.00  0.00    -0.246 OA
ENDBRANCH  16  17
ENDBRANCH  15  16
ENDBRANCH  12  15
ENDBRANCH   3  12
TORSDOF 10
REMARK  Name = ../refined-set-2016/2vkm/2vkm_pocket.pdb
REMARK  298 active torsions:
REMARK  status: ('A' for Active; 'I' for Inactive)
REMARK    1  A    between atoms: _1  and  _3
REMARK    2  A    between atoms: _3  and  _4
REMARK    3  A    between atoms: _6  and  _8
REMARK    4  A    between atoms: _8  and  _9
REMARK    5  A    between atoms: _8  and  _11
REMARK    6  A    between atoms: _11  and  _12
REMARK    7  A    between atoms: _12  and  _13
REMARK    8  A    between atoms: _13  and  _14
REMARK    9  A    between atoms: _14  and  _15
REMARK   10  A    between atoms: _19  and  _21
REMARK   11  A    between atoms: _21  and  _22
REMARK   12  A    between atoms: _21  and  _24
REMARK   13  A    between atoms: _24  and  _25
REMARK   14  A    between atoms: _27  and  _29
REMARK   15  A    between atoms: _29  and  _30
REMARK   16  A    between atoms: _32  and  _34
REMARK   17  A    between atoms: _34  and  _35
REMARK   18  A    between atoms: _34  and  _37
REMARK   19  A    between atoms: _37  and  _38
REMARK   20  A    between atoms: _38  and  _39
REMARK   21  A    between atoms: _44  and  _46
REMARK   22  A    between atoms: _46  and  _47
REMARK   23  A    between atoms: _49  and  _51
REMARK   24  A    between atoms: _51  and  _52
REMARK   25  A    between atoms: _51  and  _54
REMARK   26  A    between atoms: _54  and  _55
REMARK   27  A    between atoms: _60  and  _61
REMARK   28  A    between atoms: _63  and  _65
REMARK   29  A    between atoms: _65  and  _66
REMARK   30  A    between atoms: _65  and  _68
REMARK   31  A    between atoms: _68  and  _69
REMARK   32  A    between atoms: _74  and  _75
REMARK   33  A    between atoms: _77  and  _79
REMARK   34  A    between atoms: _79  and  _80
REMARK   35  A    between atoms: _79  and  _82
REMARK   36  A    between atoms: _82  and  _83
REMARK   37  A    between atoms: _86  and  _88
REMARK   38  A    between atoms: _88  and  _89
REMARK   39  A    between atoms: _88  and  _91
REMARK   40  A    between atoms: _94  and  _96
REMARK   41  A    between atoms: _96  and  _97
REMARK   42  A    between atoms: _96  and  _99
REMARK   43  A    between atoms: _99  and  _100
REMARK   44  A    between atoms: _103  and  _105
REMARK   45  A    between atoms: _105  and  _106
REMARK   46  A    between atoms: _105  and  _108
REMARK   47  A    between atoms: _108  and  _109
REMARK   48  A    between atoms: _112  and  _114
REMARK   49  A    between atoms: _114  and  _115
REMARK   50  A    between atoms: _117  and  _119
REMARK   51  A    between atoms: _119  and  _120
REMARK   52  A    between atoms: _119  and  _122
REMARK   53  A    between atoms: _122  and  _123
REMARK   54  A    between atoms: _125  and  _127
REMARK   55  A    between atoms: _127  and  _128
REMARK   56  A    between atoms: _127  and  _130
REMARK   57  A    between atoms: _130  and  _131
REMARK   58  A    between atoms: _133  and  _135
REMARK   59  A    between atoms: _135  and  _136
REMARK   60  A    between atoms: _135  and  _138
REMARK   61  A    between atoms: _138  and  _139
REMARK   62  A    between atoms: _144  and  _146
REMARK   63  A    between atoms: _146  and  _147
REMARK   64  A    between atoms: _146  and  _149
REMARK   65  A    between atoms: _153  and  _154
REMARK   66  A    between atoms: _159  and  _161
REMARK   67  A    between atoms: _161  and  _162
REMARK   68  A    between atoms: _161  and  _164
REMARK   69  A    between atoms: _164  and  _165
REMARK   70  A    between atoms: _170  and  _171
REMARK   71  A    between atoms: _173  and  _175
REMARK   72  A    between atoms: _175  and  _176
REMARK   73  A    between atoms: _175  and  _178
REMARK   74  A    between atoms: _178  and  _179
REMARK   75  A    between atoms: _182  and  _184
REMARK   76  A    between atoms: _184  and  _185
REMARK   77  A    between atoms: _184  and  _187
REMARK   78  A    between atoms: _187  and  _188
REMARK   79  A    between atoms: _188  and  _189
REMARK   80  A    between atoms: _194  and  _196
REMARK   81  A    between atoms: _196  and  _197
REMARK   82  A    between atoms: _199  and  _201
REMARK   83  A    between atoms: _201  and  _202
REMARK   84  A    between atoms: _201  and  _204
REMARK   85  A    between atoms: _204  and  _205
REMARK   86  A    between atoms: _205  and  _206
REMARK   87  A    between atoms: _206  and  _207
REMARK   88  A    between atoms: _207  and  _208
REMARK   89  A    between atoms: _212  and  _214
REMARK   90  A    between atoms: _214  and  _215
REMARK   91  A    between atoms: _214  and  _217
REMARK   92  A    between atoms: _217  and  _218
REMARK   93  A    between atoms: _228  and  _230
REMARK   94  A    between atoms: _230  and  _231
REMARK   95  A    between atoms: _230  and  _233
REMARK   96  A    between atoms: _233  and  _234
REMARK   97  A    between atoms: _237  and  _239
REMARK   98  A    between atoms: _239  and  _240
REMARK   99  A    between atoms: _239  and  _242
REMARK  100  A    between atoms: _242  and  _243
REMARK  101  A    between atoms: _243  and  _244
REMARK  102  A    between atoms: _244  and  _245
REMARK  103  A    between atoms: _245  and  _246
REMARK  104  A    between atoms: _250  and  _252
REMARK  105  A    between atoms: _252  and  _253
REMARK  106  A    between atoms: _252  and  _255
REMARK  107  A    between atoms: _255  and  _256
REMARK  108  A    between atoms: _262  and  _264
REMARK  109  A    between atoms: _264  and  _265
REMARK  110  A    between atoms: _264  and  _267
REMARK  111  A    between atoms: _267  and  _268
REMARK  112  A    between atoms: _274  and  _276
REMARK  113  A    between atoms: _276  and  _277
REMARK  114  A    between atoms: _276  and  _279
REMARK  115  A    between atoms: _279  and  _280
REMARK  116  A    between atoms: _283  and  _285
REMARK  117  A    between atoms: _285  and  _286
REMARK  118  A    between atoms: _285  and  _288
REMARK  119  A    between atoms: _288  and  _289
REMARK  120  A    between atoms: _291  and  _293
REMARK  121  A    between atoms: _293  and  _294
REMARK  122  A    between atoms: _293  and  _296
REMARK  123  A    between atoms: _296  and  _297
REMARK  124  A    between atoms: _307  and  _309
REMARK  125  A    between atoms: _309  and  _310
REMARK  126  A    between atoms: _312  and  _314
REMARK  127  A    between atoms: _314  and  _315
REMARK  128  A    between atoms: _314  and  _317
REMARK  129  A    between atoms: _317  and  _318
REMARK  130  A    between atoms: _321  and  _323
REMARK  131  A    between atoms: _323  and  _324
REMARK  132  A    between atoms: _323  and  _326
REMARK  133  A    between atoms: _326  and  _327
REMARK  134  A    between atoms: _330  and  _332
REMARK  135  A    between atoms: _332  and  _333
REMARK  136  A    between atoms: _335  and  _337
REMARK  137  A    between atoms: _337  and  _338
REMARK  138  A    between atoms: _337  and  _340
REMARK  139  A    between atoms: _340  and  _341
REMARK  140  A    between atoms: _344  and  _346
REMARK  141  A    between atoms: _346  and  _347
REMARK  142  A    between atoms: _350  and  _352
REMARK  143  A    between atoms: _352  and  _353
REMARK  144  A    between atoms: _352  and  _355
REMARK  145  A    between atoms: _355  and  _356
REMARK  146  A    between atoms: _361  and  _362
REMARK  147  A    between atoms: _364  and  _366
REMARK  148  A    between atoms: _366  and  _367
REMARK  149  A    between atoms: _370  and  _372
REMARK  150  A    between atoms: _372  and  _373
REMARK  151  A    between atoms: _372  and  _375
REMARK  152  A    between atoms: _375  and  _376
REMARK  153  A    between atoms: _376  and  _377
REMARK  154  A    between atoms: _380  and  _382
REMARK  155  A    between atoms: _382  and  _383
REMARK  156  A    between atoms: _382  and  _385
REMARK  157  A    between atoms: _385  and  _386
REMARK  158  A    between atoms: _389  and  _391
REMARK  159  A    between atoms: _391  and  _392
REMARK  160  A    between atoms: _395  and  _397
REMARK  161  A    between atoms: _397  and  _398
REMARK  162  A    between atoms: _397  and  _400
REMARK  163  A    between atoms: _400  and  _401
REMARK  164  A    between atoms: _401  and  _402
REMARK  165  A    between atoms: _402  and  _403
REMARK  166  A    between atoms: _412  and  _414
REMARK  167  A    between atoms: _414  and  _415
REMARK  168  A    between atoms: _414  and  _417
REMARK  169  A    between atoms: _417  and  _418
REMARK  170  A    between atoms: _421  and  _423
REMARK  171  A    between atoms: _423  and  _424
REMARK  172  A    between atoms: _426  and  _428
REMARK  173  A    between atoms: _428  and  _429
REMARK  174  A    between atoms: _428  and  _431
REMARK  175  A    between atoms: _431  and  _432
REMARK  176  A    between atoms: _442  and  _444
REMARK  177  A    between atoms: _444  and  _445
REMARK  178  A    between atoms: _444  and  _447
REMARK  179  A    between atoms: _447  and  _448
REMARK  180  A    between atoms: _453  and  _454
REMARK  181  A    between atoms: _456  and  _458
REMARK  182  A    between atoms: _458  and  _459
REMARK  183  A    between atoms: _458  and  _461
REMARK  184  A    between atoms: _461  and  _462
REMARK  185  A    between atoms: _467  and  _468
REMARK  186  A    between atoms: _470  and  _472
REMARK  187  A    between atoms: _472  and  _473
REMARK  188  A    between atoms: _472  and  _475
REMARK  189  A    between atoms: _475  and  _476
REMARK  190  A    between atoms: _476  and  _477
REMARK  191  A    between atoms: _477  and  _478
REMARK  192  A    between atoms: _478  and  _479
REMARK  193  A    between atoms: _483  and  _485
REMARK  194  A    between atoms: _485  and  _486
REMARK  195  A    between atoms: _485  and  _488
REMARK  196  A    between atoms: _488  and  _489
REMARK  197  A    between atoms: _492  and  _494
REMARK  198  A    between atoms: _494  and  _495
REMARK  199  A    between atoms: _494  and  _497
REMARK  200  A    between atoms: _500  and  _502
REMARK  201  A    between atoms: _502  and  _503
REMARK  202  A    between atoms: _502  and  _505
REMARK  203  A    between atoms: _505  and  _506
REMARK  204  A    between atoms: _509  and  _511
REMARK  205  A    between atoms: _511  and  _512
REMARK  206  A    between atoms: _511  and  _514
REMARK  207  A    between atoms: _514  and  _515
REMARK  208  A    between atoms: _517  and  _519
REMARK  209  A    between atoms: _519  and  _520
REMARK  210  A    between atoms: _522  and  _524
REMARK  211  A    between atoms: _524  and  _525
REMARK  212  A    between atoms: _524  and  _527
REMARK  213  A    between atoms: _527  and  _528
REMARK  214  A    between atoms: _531  and  _533
REMARK  215  A    between atoms: _533  and  _534
REMARK  216  A    between atoms: _533  and  _536
REMARK  217  A    between atoms: _536  and  _537
REMARK  218  A    between atoms: _540  and  _542
REMARK  219  A    between atoms: _542  and  _543
REMARK  220  A    between atoms: _542  and  _545
REMARK  221  A    between atoms: _545  and  _546
REMARK  222  A    between atoms: _551  and  _553
REMARK  223  A    between atoms: _553  and  _554
REMARK  224  A    between atoms: _553  and  _556
REMARK  225  A    between atoms: _556  and  _557
REMARK  226  A    between atoms: _560  and  _562
REMARK  227  A    between atoms: _562  and  _563
REMARK  228  A    between atoms: _562  and  _565
REMARK  229  A    between atoms: _565  and  _566
REMARK  230  A    between atoms: _566  and  _567
REMARK  231  A    between atoms: _567  and  _568
REMARK  232  A    between atoms: _577  and  _579
REMARK  233  A    between atoms: _579  and  _580
REMARK  234  A    between atoms: _579  and  _582
REMARK  235  A    between atoms: _582  and  _583
REMARK  236  A    between atoms: _586  and  _588
REMARK  237  A    between atoms: _588  and  _589
REMARK  238  A    between atoms: _588  and  _591
REMARK  239  A    between atoms: _591  and  _592
REMARK  240  A    between atoms: _595  and  _597
REMARK  241  A    between atoms: _597  and  _598
REMARK  242  A    between atoms: _600  and  _602
REMARK  243  A    between atoms: _602  and  _603
REMARK  244  A    between atoms: _602  and  _605
REMARK  245  A    between atoms: _605  and  _606
REMARK  246  A    between atoms: _606  and  _607
REMARK  247  A    between atoms: _607  and  _608
REMARK  248  A    between atoms: _617  and  _619
REMARK  249  A    between atoms: _619  and  _620
REMARK  250  A    between atoms: _619  and  _622
REMARK  251  A    between atoms: _622  and  _623
REMARK  252  A    between atoms: _629  and  _631
REMARK  253  A    between atoms: _631  and  _632
REMARK  254  A    between atoms: _635  and  _637
REMARK  255  A    between atoms: _637  and  _638
REMARK  256  A    between atoms: _637  and  _640
REMARK  257  A    between atoms: _640  and  _641
REMARK  258  A    between atoms: _644  and  _646
REMARK  259  A    between atoms: _646  and  _647
REMARK  260  A    between atoms: _646  and  _649
REMARK  261  A    between atoms: _649  and  _650
REMARK  262  A    between atoms: _652  and  _654
REMARK  263  A    between atoms: _654  and  _655
REMARK  264  A    between atoms: _654  and  _657
REMARK  265  A    between atoms: _657  and  _658
REMARK  266  A    between atoms: _658  and  _659
REMARK  267  A    between atoms: _664  and  _666
REMARK  268  A    between atoms: _666  and  _667
REMARK  269  A    between atoms: _666  and  _669
REMARK  270  A    between atoms: _669  and  _670
REMARK  271  A    between atoms: _672  and  _674
REMARK  272  A    between atoms: _674  and  _675
REMARK  273  A    between atoms: _674  and  _677
REMARK  274  A    between atoms: _677  and  _678
REMARK  275  A    between atoms: _680  and  _682
REMARK  276  A    between atoms: _682  and  _683
REMARK  277  A    between atoms: _682  and  _685
REMARK  278  A    between atoms: _685  and  _686
REMARK  279  A    between atoms: _689  and  _691
REMARK  280  A    between atoms: _691  and  _692
REMARK  281  A    between atoms: _691  and  _694
REMARK  282  A    between atoms: _697  and  _699
REMARK  283  A    between atoms: _699  and  _700
REMARK  284  A    between atoms: _702  and  _704
REMARK  285  A    between atoms: _704  and  _705
REMARK  286  A    between atoms: _708  and  _710
REMARK  287  A    between atoms: _710  and  _711
REMARK  288  A    between atoms: _710  and  _713
REMARK  289  A    between atoms: _716  and  _718
REMARK  290  A    between atoms: _718  and  _719
REMARK  291  A    between atoms: _718  and  _721
REMARK  292  A    between atoms: _721  and  _722
REMARK  293  A    between atoms: _722  and  _723
REMARK  294  A    between atoms: _725  and  _727
REMARK  295  A    between atoms: _727  and  _728
REMARK  296  A    between atoms: _727  and  _730
REMARK  297  A    between atoms: _730  and  _731
REMARK  298  A    between atoms: _731  and  _732
REMARK                            x       y       z     vdW  Elec       q    Type
REMARK                         _______ _______ _______ _____ _____    ______ ____
ROOT
ATOM      1  O   HOH     1       7.427  -6.024  36.549  0.00  0.00    +0.000 OA
ENDROOT
TORSDOF 0
REMARK  Name = ../refined-set-2016/2vkm/2vkm_pocket.pdb
REMARK  298 active torsions:
REMARK  status: ('A' for Active; 'I' for Inactive)
REMARK    1  A    between atoms: _1  and  _3
REMARK    2  A    between atoms: _3  and  _4
REMARK    3  A    between atoms: _6  and  _8
REMARK    4  A    between atoms: _8  and  _9
REMARK    5  A    between atoms: _8  and  _11
REMARK    6  A    between atoms: _11  and  _12
REMARK    7  A    between atoms: _12  and  _13
REMARK    8  A    between atoms: _13  and  _14
REMARK    9  A    between atoms: _14  and  _15
REMARK   10  A    between atoms: _19  and  _21
REMARK   11  A    between atoms: _21  and  _22
REMARK   12  A    between atoms: _21  and  _24
REMARK   13  A    between atoms: _24  and  _25
REMARK   14  A    between atoms: _27  and  _29
REMARK   15  A    between atoms: _29  and  _30
REMARK   16  A    between atoms: _32  and  _34
REMARK   17  A    between atoms: _34  and  _35
REMARK   18  A    between atoms: _34  and  _37
REMARK   19  A    between atoms: _37  and  _38
REMARK   20  A    between atoms: _38  and  _39
REMARK   21  A    between atoms: _44  and  _46
REMARK   22  A    between atoms: _46  and  _47
REMARK   23  A    between atoms: _49  and  _51
REMARK   24  A    between atoms: _51  and  _52
REMARK   25  A    between atoms: _51  and  _54
REMARK   26  A    between atoms: _54  and  _55
REMARK   27  A    between atoms: _60  and  _61
REMARK   28  A    between atoms: _63  and  _65
REMARK   29  A    between atoms: _65  and  _66
REMARK   30  A    between atoms: _65  and  _68
REMARK   31  A    between atoms: _68  and  _69
REMARK   32  A    between atoms: _74  and  _75
REMARK   33  A    between atoms: _77  and  _79
REMARK   34  A    between atoms: _79  and  _80
REMARK   35  A    between atoms: _79  and  _82
REMARK   36  A    between atoms: _82  and  _83
REMARK   37  A    between atoms: _86  and  _88
REMARK   38  A    between atoms: _88  and  _89
REMARK   39  A    between atoms: _88  and  _91
REMARK   40  A    between atoms: _94  and  _96
REMARK   41  A    between atoms: _96  and  _97
REMARK   42  A    between atoms: _96  and  _99
REMARK   43  A    between atoms: _99  and  _100
REMARK   44  A    between atoms: _103  and  _105
REMARK   45  A    between atoms: _105  and  _106
REMARK   46  A    between atoms: _105  and  _108
REMARK   47  A    between atoms: _108  and  _109
REMARK   48  A    between atoms: _112  and  _114
REMARK   49  A    between atoms: _114  and  _115
REMARK   50  A    between atoms: _117  and  _119
REMARK   51  A    between atoms: _119  and  _120
REMARK   52  A    between atoms: _119  and  _122
REMARK   53  A    between atoms: _122  and  _123
REMARK   54  A    between atoms: _125  and  _127
REMARK   55  A    between atoms: _127  and  _128
REMARK   56  A    between atoms: _127  and  _130
REMARK   57  A    between atoms: _130  and  _131
REMARK   58  A    between atoms: _133  and  _135
REMARK   59  A    between atoms: _135  and  _136
REMARK   60  A    between atoms: _135  and  _138
REMARK   61  A    between atoms: _138  and  _139
REMARK   62  A    between atoms: _144  and  _146
REMARK   63  A    between atoms: _146  and  _147
REMARK   64  A    between atoms: _146  and  _149
REMARK   65  A    between atoms: _153  and  _154
REMARK   66  A    between atoms: _159  and  _161
REMARK   67  A    between atoms: _161  and  _162
REMARK   68  A    between atoms: _161  and  _164
REMARK   69  A    between atoms: _164  and  _165
REMARK   70  A    between atoms: _170  and  _171
REMARK   71  A    between atoms: _173  and  _175
REMARK   72  A    between atoms: _175  and  _176
REMARK   73  A    between atoms: _175  and  _178
REMARK   74  A    between atoms: _178  and  _179
REMARK   75  A    between atoms: _182  and  _184
REMARK   76  A    between atoms: _184  and  _185
REMARK   77  A    between atoms: _184  and  _187
REMARK   78  A    between atoms: _187  and  _188
REMARK   79  A    between atoms: _188  and  _189
REMARK   80  A    between atoms: _194  and  _196
REMARK   81  A    between atoms: _196  and  _197
REMARK   82  A    between atoms: _199  and  _201
REMARK   83  A    between atoms: _201  and  _202
REMARK   84  A    between atoms: _201  and  _204
REMARK   85  A    between atoms: _204  and  _205
REMARK   86  A    between atoms: _205  and  _206
REMARK   87  A    between atoms: _206  and  _207
REMARK   88  A    between atoms: _207  and  _208
REMARK   89  A    between atoms: _212  and  _214
REMARK   90  A    between atoms: _214  and  _215
REMARK   91  A    between atoms: _214  and  _217
REMARK   92  A    between atoms: _217  and  _218
REMARK   93  A    between atoms: _228  and  _230
REMARK   94  A    between atoms: _230  and  _231
REMARK   95  A    between atoms: _230  and  _233
REMARK   96  A    between atoms: _233  and  _234
REMARK   97  A    between atoms: _237  and  _239
REMARK   98  A    between atoms: _239  and  _240
REMARK   99  A    between atoms: _239  and  _242
REMARK  100  A    between atoms: _242  and  _243
REMARK  101  A    between atoms: _243  and  _244
REMARK  102  A    between atoms: _244  and  _245
REMARK  103  A    between atoms: _245  and  _246
REMARK  104  A    between atoms: _250  and  _252
REMARK  105  A    between atoms: _252  and  _253
REMARK  106  A    between atoms: _252  and  _255
REMARK  107  A    between atoms: _255  and  _256
REMARK  108  A    between atoms: _262  and  _264
REMARK  109  A    between atoms: _264  and  _265
REMARK  110  A    between atoms: _264  and  _267
REMARK  111  A    between atoms: _267  and  _268
REMARK  112  A    between atoms: _274  and  _276
REMARK  113  A    between atoms: _276  and  _277
REMARK  114  A    between atoms: _276  and  _279
REMARK  115  A    between atoms: _279  and  _280
REMARK  116  A    between atoms: _283  and  _285
REMARK  117  A    between atoms: _285  and  _286
REMARK  118  A    between atoms: _285  and  _288
REMARK  119  A    between atoms: _288  and  _289
REMARK  120  A    between atoms: _291  and  _293
REMARK  121  A    between atoms: _293  and  _294
REMARK  122  A    between atoms: _293  and  _296
REMARK  123  A    between atoms: _296  and  _297
REMARK  124  A    between atoms: _307  and  _309
REMARK  125  A    between atoms: _309  and  _310
REMARK  126  A    between atoms: _312  and  _314
REMARK  127  A    between atoms: _314  and  _315
REMARK  128  A    between atoms: _314  and  _317
REMARK  129  A    between atoms: _317  and  _318
REMARK  130  A    between atoms: _321  and  _323
REMARK  131  A    between atoms: _323  and  _324
REMARK  132  A    between atoms: _323  and  _326
REMARK  133  A    between atoms: _326  and  _327
REMARK  134  A    between atoms: _330  and  _332
REMARK  135  A    between atoms: _332  and  _333
REMARK  136  A    between atoms: _335  and  _337
REMARK  137  A    between atoms: _337  and  _338
REMARK  138  A    between atoms: _337  and  _340
REMARK  139  A    between atoms: _340  and  _341
REMARK  140  A    between atoms: _344  and  _346
REMARK  141  A    between atoms: _346  and  _347
REMARK  142  A    between atoms: _350  and  _352
REMARK  143  A    between atoms: _352  and  _353
REMARK  144  A    between atoms: _352  and  _355
REMARK  145  A    between atoms: _355  and  _356
REMARK  146  A    between atoms: _361  and  _362
REMARK  147  A    between atoms: _364  and  _366
REMARK  148  A    between atoms: _366  and  _367
REMARK  149  A    between atoms: _370  and  _372
REMARK  150  A    between atoms: _372  and  _373
REMARK  151  A    between atoms: _372  and  _375
REMARK  152  A    between atoms: _375  and  _376
REMARK  153  A    between atoms: _376  and  _377
REMARK  154  A    between atoms: _380  and  _382
REMARK  155  A    between atoms: _382  and  _383
REMARK  156  A    between atoms: _382  and  _385
REMARK  157  A    between atoms: _385  and  _386
REMARK  158  A    between atoms: _389  and  _391
REMARK  159  A    between atoms: _391  and  _392
REMARK  160  A    between atoms: _395  and  _397
REMARK  161  A    between atoms: _397  and  _398
REMARK  162  A    between atoms: _397  and  _400
REMARK  163  A    between atoms: _400  and  _401
REMARK  164  A    between atoms: _401  and  _402
REMARK  165  A    between atoms: _402  and  _403
REMARK  166  A    between atoms: _412  and  _414
REMARK  167  A    between atoms: _414  and  _415
REMARK  168  A    between atoms: _414  and  _417
REMARK  169  A    between atoms: _417  and  _418
REMARK  170  A    between atoms: _421  and  _423
REMARK  171  A    between atoms: _423  and  _424
REMARK  172  A    between atoms: _426  and  _428
REMARK  173  A    between atoms: _428  and  _429
REMARK  174  A    between atoms: _428  and  _431
REMARK  175  A    between atoms: _431  and  _432
REMARK  176  A    between atoms: _442  and  _444
REMARK  177  A    between atoms: _444  and  _445
REMARK  178  A    between atoms: _444  and  _447
REMARK  179  A    between atoms: _447  and  _448
REMARK  180  A    between atoms: _453  and  _454
REMARK  181  A    between atoms: _456  and  _458
REMARK  182  A    between atoms: _458  and  _459
REMARK  183  A    between atoms: _458  and  _461
REMARK  184  A    between atoms: _461  and  _462
REMARK  185  A    between atoms: _467  and  _468
REMARK  186  A    between atoms: _470  and  _472
REMARK  187  A    between atoms: _472  and  _473
REMARK  188  A    between atoms: _472  and  _475
REMARK  189  A    between atoms: _475  and  _476
REMARK  190  A    between atoms: _476  and  _477
REMARK  191  A    between atoms: _477  and  _478
REMARK  192  A    between atoms: _478  and  _479
REMARK  193  A    between atoms: _483  and  _485
REMARK  194  A    between atoms: _485  and  _486
REMARK  195  A    between atoms: _485  and  _488
REMARK  196  A    between atoms: _488  and  _489
REMARK  197  A    between atoms: _492  and  _494
REMARK  198  A    between atoms: _494  and  _495
REMARK  199  A    between atoms: _494  and  _497
REMARK  200  A    between atoms: _500  and  _502
REMARK  201  A    between atoms: _502  and  _503
REMARK  202  A    between atoms: _502  and  _505
REMARK  203  A    between atoms: _505  and  _506
REMARK  204  A    between atoms: _509  and  _511
REMARK  205  A    between atoms: _511  and  _512
REMARK  206  A    between atoms: _511  and  _514
REMARK  207  A    between atoms: _514  and  _515
REMARK  208  A    between atoms: _517  and  _519
REMARK  209  A    between atoms: _519  and  _520
REMARK  210  A    between atoms: _522  and  _524
REMARK  211  A    between atoms: _524  and  _525
REMARK  212  A    between atoms: _524  and  _527
REMARK  213  A    between atoms: _527  and  _528
REMARK  214  A    between atoms: _531  and  _533
REMARK  215  A    between atoms: _533  and  _534
REMARK  216  A    between atoms: _533  and  _536
REMARK  217  A    between atoms: _536  and  _537
REMARK  218  A    between atoms: _540  and  _542
REMARK  219  A    between atoms: _542  and  _543
REMARK  220  A    between atoms: _542  and  _545
REMARK  221  A    between atoms: _545  and  _546
REMARK  222  A    between atoms: _551  and  _553
REMARK  223  A    between atoms: _553  and  _554
REMARK  224  A    between atoms: _553  and  _556
REMARK  225  A    between atoms: _556  and  _557
REMARK  226  A    between atoms: _560  and  _562
REMARK  227  A    between atoms: _562  and  _563
REMARK  228  A    between atoms: _562  and  _565
REMARK  229  A    between atoms: _565  and  _566
REMARK  230  A    between atoms: _566  and  _567
REMARK  231  A    between atoms: _567  and  _568
REMARK  232  A    between atoms: _577  and  _579
REMARK  233  A    between atoms: _579  and  _580
REMARK  234  A    between atoms: _579  and  _582
REMARK  235  A    between atoms: _582  and  _583
REMARK  236  A    between atoms: _586  and  _588
REMARK  237  A    between atoms: _588  and  _589
REMARK  238  A    between atoms: _588  and  _591
REMARK  239  A    between atoms: _591  and  _592
REMARK  240  A    between atoms: _595  and  _597
REMARK  241  A    between atoms: _597  and  _598
REMARK  242  A    between atoms: _600  and  _602
REMARK  243  A    between atoms: _602  and  _603
REMARK  244  A    between atoms: _602  and  _605
REMARK  245  A    between atoms: _605  and  _606
REMARK  246  A    between atoms: _606  and  _607
REMARK  247  A    between atoms: _607  and  _608
REMARK  248  A    between atoms: _617  and  _619
REMARK  249  A    between atoms: _619  and  _620
REMARK  250  A    between atoms: _619  and  _622
REMARK  251  A    between atoms: _622  and  _623
REMARK  252  A    between atoms: _629  and  _631
REMARK  253  A    between atoms: _631  and  _632
REMARK  254  A    between atoms: _635  and  _637
REMARK  255  A    between atoms: _637  and  _638
REMARK  256  A    between atoms: _637  and  _640
REMARK  257  A    between atoms: _640  and  _641
REMARK  258  A    between atoms: _644  and  _646
REMARK  259  A    between atoms: _646  and  _647
REMARK  260  A    between atoms: _646  and  _649
REMARK  261  A    between atoms: _649  and  _650
REMARK  262  A    between atoms: _652  and  _654
REMARK  263  A    between atoms: _654  and  _655
REMARK  264  A    between atoms: _654  and  _657
REMARK  265  A    between atoms: _657  and  _658
REMARK  266  A    between atoms: _658  and  _659
REMARK  267  A    between atoms: _664  and  _666
REMARK  268  A    between atoms: _666  and  _667
REMARK  269  A    between atoms: _666  and  _669
REMARK  270  A    between atoms: _669  and  _670
REMARK  271  A    between atoms: _672  and  _674
REMARK  272  A    between atoms: _674  and  _675
REMARK  273  A    between atoms: _674  and  _677
REMARK  274  A    between atoms: _677  and  _678
REMARK  275  A    between atoms: _680  and  _682
REMARK  276  A    between atoms: _682  and  _683
REMARK  277  A    between atoms: _682  and  _685
REMARK  278  A    between atoms: _685  and  _686
REMARK  279  A    between atoms: _689  and  _691
REMARK  280  A    between atoms: _691  and  _692
REMARK  281  A    between atoms: _691  and  _694
REMARK  282  A    between atoms: _697  and  _699
REMARK  283  A    between atoms: _699  and  _700
REMARK  284  A    between atoms: _702  and  _704
REMARK  285  A    between atoms: _704  and  _705
REMARK  286  A    between atoms: _708  and  _710
REMARK  287  A    between atoms: _710  and  _711
REMARK  288  A    between atoms: _710  and  _713
REMARK  289  A    between atoms: _716  and  _718
REMARK  290  A    between atoms: _718  and  _719
REMARK  291  A    between atoms: _718  and  _721
REMARK  292  A    between atoms: _721  and  _722
REMARK  293  A    between atoms: _722  and  _723
REMARK  294  A    between atoms: _725  and  _727
REMARK  295  A    between atoms: _727  and  _728
REMARK  296  A    between atoms: _727  and  _730
REMARK  297  A    between atoms: _730  and  _731
REMARK  298  A    between atoms: _731  and  _732
REMARK                            x       y       z     vdW  Elec       q    Type
REMARK                         _______ _______ _______ _____ _____    ______ ____
ROOT
ATOM      1  O   HOH     1       9.441  -5.130  33.199  0.00  0.00    +0.000 OA
ENDROOT
TORSDOF 0
REMARK  Name = ../refined-set-2016/2vkm/2vkm_pocket.pdb
REMARK  298 active torsions:
REMARK  status: ('A' for Active; 'I' for Inactive)
REMARK    1  A    between atoms: _1  and  _3
REMARK    2  A    between atoms: _3  and  _4
REMARK    3  A    between atoms: _6  and  _8
REMARK    4  A    between atoms: _8  and  _9
REMARK    5  A    between atoms: _8  and  _11
REMARK    6  A    between atoms: _11  and  _12
REMARK    7  A    between atoms: _12  and  _13
REMARK    8  A    between atoms: _13  and  _14
REMARK    9  A    between atoms: _14  and  _15
REMARK   10  A    between atoms: _19  and  _21
REMARK   11  A    between atoms: _21  and  _22
REMARK   12  A    between atoms: _21  and  _24
REMARK   13  A    between atoms: _24  and  _25
REMARK   14  A    between atoms: _27  and  _29
REMARK   15  A    between atoms: _29  and  _30
REMARK   16  A    between atoms: _32  and  _34
REMARK   17  A    between atoms: _34  and  _35
REMARK   18  A    between atoms: _34  and  _37
REMARK   19  A    between atoms: _37  and  _38
REMARK   20  A    between atoms: _38  and  _39
REMARK   21  A    between atoms: _44  and  _46
REMARK   22  A    between atoms: _46  and  _47
REMARK   23  A    between atoms: _49  and  _51
REMARK   24  A    between atoms: _51  and  _52
REMARK   25  A    between atoms: _51  and  _54
REMARK   26  A    between atoms: _54  and  _55
REMARK   27  A    between atoms: _60  and  _61
REMARK   28  A    between atoms: _63  and  _65
REMARK   29  A    between atoms: _65  and  _66
REMARK   30  A    between atoms: _65  and  _68
REMARK   31  A    between atoms: _68  and  _69
REMARK   32  A    between atoms: _74  and  _75
REMARK   33  A    between atoms: _77  and  _79
REMARK   34  A    between atoms: _79  and  _80
REMARK   35  A    between atoms: _79  and  _82
REMARK   36  A    between atoms: _82  and  _83
REMARK   37  A    between atoms: _86  and  _88
REMARK   38  A    between atoms: _88  and  _89
REMARK   39  A    between atoms: _88  and  _91
REMARK   40  A    between atoms: _94  and  _96
REMARK   41  A    between atoms: _96  and  _97
REMARK   42  A    between atoms: _96  and  _99
REMARK   43  A    between atoms: _99  and  _100
REMARK   44  A    between atoms: _103  and  _105
REMARK   45  A    between atoms: _105  and  _106
REMARK   46  A    between atoms: _105  and  _108
REMARK   47  A    between atoms: _108  and  _109
REMARK   48  A    between atoms: _112  and  _114
REMARK   49  A    between atoms: _114  and  _115
REMARK   50  A    between atoms: _117  and  _119
REMARK   51  A    between atoms: _119  and  _120
REMARK   52  A    between atoms: _119  and  _122
REMARK   53  A    between atoms: _122  and  _123
REMARK   54  A    between atoms: _125  and  _127
REMARK   55  A    between atoms: _127  and  _128
REMARK   56  A    between atoms: _127  and  _130
REMARK   57  A    between atoms: _130  and  _131
REMARK   58  A    between atoms: _133  and  _135
REMARK   59  A    between atoms: _135  and  _136
REMARK   60  A    between atoms: _135  and  _138
REMARK   61  A    between atoms: _138  and  _139
REMARK   62  A    between atoms: _144  and  _146
REMARK   63  A    between atoms: _146  and  _147
REMARK   64  A    between atoms: _146  and  _149
REMARK   65  A    between atoms: _153  and  _154
REMARK   66  A    between atoms: _159  and  _161
REMARK   67  A    between atoms: _161  and  _162
REMARK   68  A    between atoms: _161  and  _164
REMARK   69  A    between atoms: _164  and  _165
REMARK   70  A    between atoms: _170  and  _171
REMARK   71  A    between atoms: _173  and  _175
REMARK   72  A    between atoms: _175  and  _176
REMARK   73  A    between atoms: _175  and  _178
REMARK   74  A    between atoms: _178  and  _179
REMARK   75  A    between atoms: _182  and  _184
REMARK   76  A    between atoms: _184  and  _185
REMARK   77  A    between atoms: _184  and  _187
REMARK   78  A    between atoms: _187  and  _188
REMARK   79  A    between atoms: _188  and  _189
REMARK   80  A    between atoms: _194  and  _196
REMARK   81  A    between atoms: _196  and  _197
REMARK   82  A    between atoms: _199  and  _201
REMARK   83  A    between atoms: _201  and  _202
REMARK   84  A    between atoms: _201  and  _204
REMARK   85  A    between atoms: _204  and  _205
REMARK   86  A    between atoms: _205  and  _206
REMARK   87  A    between atoms: _206  and  _207
REMARK   88  A    between atoms: _207  and  _208
REMARK   89  A    between atoms: _212  and  _214
REMARK   90  A    between atoms: _214  and  _215
REMARK   91  A    between atoms: _214  and  _217
REMARK   92  A    between atoms: _217  and  _218
REMARK   93  A    between atoms: _228  and  _230
REMARK   94  A    between atoms: _230  and  _231
REMARK   95  A    between atoms: _230  and  _233
REMARK   96  A    between atoms: _233  and  _234
REMARK   97  A    between atoms: _237  and  _239
REMARK   98  A    between atoms: _239  and  _240
REMARK   99  A    between atoms: _239  and  _242
REMARK  100  A    between atoms: _242  and  _243
REMARK  101  A    between atoms: _243  and  _244
REMARK  102  A    between atoms: _244  and  _245
REMARK  103  A    between atoms: _245  and  _246
REMARK  104  A    between atoms: _250  and  _252
REMARK  105  A    between atoms: _252  and  _253
REMARK  106  A    between atoms: _252  and  _255
REMARK  107  A    between atoms: _255  and  _256
REMARK  108  A    between atoms: _262  and  _264
REMARK  109  A    between atoms: _264  and  _265
REMARK  110  A    between atoms: _264  and  _267
REMARK  111  A    between atoms: _267  and  _268
REMARK  112  A    between atoms: _274  and  _276
REMARK  113  A    between atoms: _276  and  _277
REMARK  114  A    between atoms: _276  and  _279
REMARK  115  A    between atoms: _279  and  _280
REMARK  116  A    between atoms: _283  and  _285
REMARK  117  A    between atoms: _285  and  _286
REMARK  118  A    between atoms: _285  and  _288
REMARK  119  A    between atoms: _288  and  _289
REMARK  120  A    between atoms: _291  and  _293
REMARK  121  A    between atoms: _293  and  _294
REMARK  122  A    between atoms: _293  and  _296
REMARK  123  A    between atoms: _296  and  _297
REMARK  124  A    between atoms: _307  and  _309
REMARK  125  A    between atoms: _309  and  _310
REMARK  126  A    between atoms: _312  and  _314
REMARK  127  A    between atoms: _314  and  _315
REMARK  128  A    between atoms: _314  and  _317
REMARK  129  A    between atoms: _317  and  _318
REMARK  130  A    between atoms: _321  and  _323
REMARK  131  A    between atoms: _323  and  _324
REMARK  132  A    between atoms: _323  and  _326
REMARK  133  A    between atoms: _326  and  _327
REMARK  134  A    between atoms: _330  and  _332
REMARK  135  A    between atoms: _332  and  _333
REMARK  136  A    between atoms: _335  and  _337
REMARK  137  A    between atoms: _337  and  _338
REMARK  138  A    between atoms: _337  and  _340
REMARK  139  A    between atoms: _340  and  _341
REMARK  140  A    between atoms: _344  and  _346
REMARK  141  A    between atoms: _346  and  _347
REMARK  142  A    between atoms: _350  and  _352
REMARK  143  A    between atoms: _352  and  _353
REMARK  144  A    between atoms: _352  and  _355
REMARK  145  A    between atoms: _355  and  _356
REMARK  146  A    between atoms: _361  and  _362
REMARK  147  A    between atoms: _364  and  _366
REMARK  148  A    between atoms: _366  and  _367
REMARK  149  A    between atoms: _370  and  _372
REMARK  150  A    between atoms: _372  and  _373
REMARK  151  A    between atoms: _372  and  _375
REMARK  152  A    between atoms: _375  and  _376
REMARK  153  A    between atoms: _376  and  _377
REMARK  154  A    between atoms: _380  and  _382
REMARK  155  A    between atoms: _382  and  _383
REMARK  156  A    between atoms: _382  and  _385
REMARK  157  A    between atoms: _385  and  _386
REMARK  158  A    between atoms: _389  and  _391
REMARK  159  A    between atoms: _391  and  _392
REMARK  160  A    between atoms: _395  and  _397
REMARK  161  A    between atoms: _397  and  _398
REMARK  162  A    between atoms: _397  and  _400
REMARK  163  A    between atoms: _400  and  _401
REMARK  164  A    between atoms: _401  and  _402
REMARK  165  A    between atoms: _402  and  _403
REMARK  166  A    between atoms: _412  and  _414
REMARK  167  A    between atoms: _414  and  _415
REMARK  168  A    between atoms: _414  and  _417
REMARK  169  A    between atoms: _417  and  _418
REMARK  170  A    between atoms: _421  and  _423
REMARK  171  A    between atoms: _423  and  _424
REMARK  172  A    between atoms: _426  and  _428
REMARK  173  A    between atoms: _428  and  _429
REMARK  174  A    between atoms: _428  and  _431
REMARK  175  A    between atoms: _431  and  _432
REMARK  176  A    between atoms: _442  and  _444
REMARK  177  A    between atoms: _444  and  _445
REMARK  178  A    between atoms: _444  and  _447
REMARK  179  A    between atoms: _447  and  _448
REMARK  180  A    between atoms: _453  and  _454
REMARK  181  A    between atoms: _456  and  _458
REMARK  182  A    between atoms: _458  and  _459
REMARK  183  A    between atoms: _458  and  _461
REMARK  184  A    between atoms: _461  and  _462
REMARK  185  A    between atoms: _467  and  _468
REMARK  186  A    between atoms: _470  and  _472
REMARK  187  A    between atoms: _472  and  _473
REMARK  188  A    between atoms: _472  and  _475
REMARK  189  A    between atoms: _475  and  _476
REMARK  190  A    between atoms: _476  and  _477
REMARK  191  A    between atoms: _477  and  _478
REMARK  192  A    between atoms: _478  and  _479
REMARK  193  A    between atoms: _483  and  _485
REMARK  194  A    between atoms: _485  and  _486
REMARK  195  A    between atoms: _485  and  _488
REMARK  196  A    between atoms: _488  and  _489
REMARK  197  A    between atoms: _492  and  _494
REMARK  198  A    between atoms: _494  and  _495
REMARK  199  A    between atoms: _494  and  _497
REMARK  200  A    between atoms: _500  and  _502
REMARK  201  A    between atoms: _502  and  _503
REMARK  202  A    between atoms: _502  and  _505
REMARK  203  A    between atoms: _505  and  _506
REMARK  204  A    between atoms: _509  and  _511
REMARK  205  A    between atoms: _511  and  _512
REMARK  206  A    between atoms: _511  and  _514
REMARK  207  A    between atoms: _514  and  _515
REMARK  208  A    between atoms: _517  and  _519
REMARK  209  A    between atoms: _519  and  _520
REMARK  210  A    between atoms: _522  and  _524
REMARK  211  A    between atoms: _524  and  _525
REMARK  212  A    between atoms: _524  and  _527
REMARK  213  A    between atoms: _527  and  _528
REMARK  214  A    between atoms: _531  and  _533
REMARK  215  A    between atoms: _533  and  _534
REMARK  216  A    between atoms: _533  and  _536
REMARK  217  A    between atoms: _536  and  _537
REMARK  218  A    between atoms: _540  and  _542
REMARK  219  A    between atoms: _542  and  _543
REMARK  220  A    between atoms: _542  and  _545
REMARK  221  A    between atoms: _545  and  _546
REMARK  222  A    between atoms: _551  and  _553
REMARK  223  A    between atoms: _553  and  _554
REMARK  224  A    between atoms: _553  and  _556
REMARK  225  A    between atoms: _556  and  _557
REMARK  226  A    between atoms: _560  and  _562
REMARK  227  A    between atoms: _562  and  _563
REMARK  228  A    between atoms: _562  and  _565
REMARK  229  A    between atoms: _565  and  _566
REMARK  230  A    between atoms: _566  and  _567
REMARK  231  A    between atoms: _567  and  _568
REMARK  232  A    between atoms: _577  and  _579
REMARK  233  A    between atoms: _579  and  _580
REMARK  234  A    between atoms: _579  and  _582
REMARK  235  A    between atoms: _582  and  _583
REMARK  236  A    between atoms: _586  and  _588
REMARK  237  A    between atoms: _588  and  _589
REMARK  238  A    between atoms: _588  and  _591
REMARK  239  A    between atoms: _591  and  _592
REMARK  240  A    between atoms: _595  and  _597
REMARK  241  A    between atoms: _597  and  _598
REMARK  242  A    between atoms: _600  and  _602
REMARK  243  A    between atoms: _602  and  _603
REMARK  244  A    between atoms: _602  and  _605
REMARK  245  A    between atoms: _605  and  _606
REMARK  246  A    between atoms: _606  and  _607
REMARK  247  A    between atoms: _607  and  _608
REMARK  248  A    between atoms: _617  and  _619
REMARK  249  A    between atoms: _619  and  _620
REMARK  250  A    between atoms: _619  and  _622
REMARK  251  A    between atoms: _622  and  _623
REMARK  252  A    between atoms: _629  and  _631
REMARK  253  A    between atoms: _631  and  _632
REMARK  254  A    between atoms: _635  and  _637
REMARK  255  A    between atoms: _637  and  _638
REMARK  256  A    between atoms: _637  and  _640
REMARK  257  A    between atoms: _640  and  _641
REMARK  258  A    between atoms: _644  and  _646
REMARK  259  A    between atoms: _646  and  _647
REMARK  260  A    between atoms: _646  and  _649
REMARK  261  A    between atoms: _649  and  _650
REMARK  262  A    between atoms: _652  and  _654
REMARK  263  A    between atoms: _654  and  _655
REMARK  264  A    between atoms: _654  and  _657
REMARK  265  A    between atoms: _657  and  _658
REMARK  266  A    between atoms: _658  and  _659
REMARK  267  A    between atoms: _664  and  _666
REMARK  268  A    between atoms: _666  and  _667
REMARK  269  A    between atoms: _666  and  _669
REMARK  270  A    between atoms: _669  and  _670
REMARK  271  A    between atoms: _672  and  _674
REMARK  272  A    between atoms: _674  and  _675
REMARK  273  A    between atoms: _674  and  _677
REMARK  274  A    between atoms: _677  and  _678
REMARK  275  A    between atoms: _680  and  _682
REMARK  276  A    between atoms: _682  and  _683
REMARK  277  A    between atoms: _682  and  _685
REMARK  278  A    between atoms: _685  and  _686
REMARK  279  A    between atoms: _689  and  _691
REMARK  280  A    between atoms: _691  and  _692
REMARK  281  A    between atoms: _691  and  _694
REMARK  282  A    between atoms: _697  and  _699
REMARK  283  A    between atoms: _699  and  _700
REMARK  284  A    between atoms: _702  and  _704
REMARK  285  A    between atoms: _704  and  _705
REMARK  286  A    between atoms: _708  and  _710
REMARK  287  A    between atoms: _710  and  _711
REMARK  288  A    between atoms: _710  and  _713
REMARK  289  A    between atoms: _716  and  _718
REMARK  290  A    between atoms: _718  and  _719
REMARK  291  A    between atoms: _718  and  _721
REMARK  292  A    between atoms: _721  and  _722
REMARK  293  A    between atoms: _722  and  _723
REMARK  294  A    between atoms: _725  and  _727
REMARK  295  A    between atoms: _727  and  _728
REMARK  296  A    between atoms: _727  and  _730
REMARK  297  A    between atoms: _730  and  _731
REMARK  298  A    between atoms: _731  and  _732
REMARK                            x       y       z     vdW  Elec       q    Type
REMARK                         _______ _______ _______ _____ _____    ______ ____
ROOT
ATOM      1  O   HOH     1       6.662  -6.644  31.412  0.00  0.00    +0.000 OA
ENDROOT
TORSDOF 0
REMARK  Name = ../refined-set-2016/2vkm/2vkm_pocket.pdb
REMARK  298 active torsions:
REMARK  status: ('A' for Active; 'I' for Inactive)
REMARK    1  A    between atoms: _1  and  _3
REMARK    2  A    between atoms: _3  and  _4
REMARK    3  A    between atoms: _6  and  _8
REMARK    4  A    between atoms: _8  and  _9
REMARK    5  A    between atoms: _8  and  _11
REMARK    6  A    between atoms: _11  and  _12
REMARK    7  A    between atoms: _12  and  _13
REMARK    8  A    between atoms: _13  and  _14
REMARK    9  A    between atoms: _14  and  _15
REMARK   10  A    between atoms: _19  and  _21
REMARK   11  A    between atoms: _21  and  _22
REMARK   12  A    between atoms: _21  and  _24
REMARK   13  A    between atoms: _24  and  _25
REMARK   14  A    between atoms: _27  and  _29
REMARK   15  A    between atoms: _29  and  _30
REMARK   16  A    between atoms: _32  and  _34
REMARK   17  A    between atoms: _34  and  _35
REMARK   18  A    between atoms: _34  and  _37
REMARK   19  A    between atoms: _37  and  _38
REMARK   20  A    between atoms: _38  and  _39
REMARK   21  A    between atoms: _44  and  _46
REMARK   22  A    between atoms: _46  and  _47
REMARK   23  A    between atoms: _49  and  _51
REMARK   24  A    between atoms: _51  and  _52
REMARK   25  A    between atoms: _51  and  _54
REMARK   26  A    between atoms: _54  and  _55
REMARK   27  A    between atoms: _60  and  _61
REMARK   28  A    between atoms: _63  and  _65
REMARK   29  A    between atoms: _65  and  _66
REMARK   30  A    between atoms: _65  and  _68
REMARK   31  A    between atoms: _68  and  _69
REMARK   32  A    between atoms: _74  and  _75
REMARK   33  A    between atoms: _77  and  _79
REMARK   34  A    between atoms: _79  and  _80
REMARK   35  A    between atoms: _79  and  _82
REMARK   36  A    between atoms: _82  and  _83
REMARK   37  A    between atoms: _86  and  _88
REMARK   38  A    between atoms: _88  and  _89
REMARK   39  A    between atoms: _88  and  _91
REMARK   40  A    between atoms: _94  and  _96
REMARK   41  A    between atoms: _96  and  _97
REMARK   42  A    between atoms: _96  and  _99
REMARK   43  A    between atoms: _99  and  _100
REMARK   44  A    between atoms: _103  and  _105
REMARK   45  A    between atoms: _105  and  _106
REMARK   46  A    between atoms: _105  and  _108
REMARK   47  A    between atoms: _108  and  _109
REMARK   48  A    between atoms: _112  and  _114
REMARK   49  A    between atoms: _114  and  _115
REMARK   50  A    between atoms: _117  and  _119
REMARK   51  A    between atoms: _119  and  _120
REMARK   52  A    between atoms: _119  and  _122
REMARK   53  A    between atoms: _122  and  _123
REMARK   54  A    between atoms: _125  and  _127
REMARK   55  A    between atoms: _127  and  _128
REMARK   56  A    between atoms: _127  and  _130
REMARK   57  A    between atoms: _130  and  _131
REMARK   58  A    between atoms: _133  and  _135
REMARK   59  A    between atoms: _135  and  _136
REMARK   60  A    between atoms: _135  and  _138
REMARK   61  A    between atoms: _138  and  _139
REMARK   62  A    between atoms: _144  and  _146
REMARK   63  A    between atoms: _146  and  _147
REMARK   64  A    between atoms: _146  and  _149
REMARK   65  A    between atoms: _153  and  _154
REMARK   66  A    between atoms: _159  and  _161
REMARK   67  A    between atoms: _161  and  _162
REMARK   68  A    between atoms: _161  and  _164
REMARK   69  A    between atoms: _164  and  _165
REMARK   70  A    between atoms: _170  and  _171
REMARK   71  A    between atoms: _173  and  _175
REMARK   72  A    between atoms: _175  and  _176
REMARK   73  A    between atoms: _175  and  _178
REMARK   74  A    between atoms: _178  and  _179
REMARK   75  A    between atoms: _182  and  _184
REMARK   76  A    between atoms: _184  and  _185
REMARK   77  A    between atoms: _184  and  _187
REMARK   78  A    between atoms: _187  and  _188
REMARK   79  A    between atoms: _188  and  _189
REMARK   80  A    between atoms: _194  and  _196
REMARK   81  A    between atoms: _196  and  _197
REMARK   82  A    between atoms: _199  and  _201
REMARK   83  A    between atoms: _201  and  _202
REMARK   84  A    between atoms: _201  and  _204
REMARK   85  A    between atoms: _204  and  _205
REMARK   86  A    between atoms: _205  and  _206
REMARK   87  A    between atoms: _206  and  _207
REMARK   88  A    between atoms: _207  and  _208
REMARK   89  A    between atoms: _212  and  _214
REMARK   90  A    between atoms: _214  and  _215
REMARK   91  A    between atoms: _214  and  _217
REMARK   92  A    between atoms: _217  and  _218
REMARK   93  A    between atoms: _228  and  _230
REMARK   94  A    between atoms: _230  and  _231
REMARK   95  A    between atoms: _230  and  _233
REMARK   96  A    between atoms: _233  and  _234
REMARK   97  A    between atoms: _237  and  _239
REMARK   98  A    between atoms: _239  and  _240
REMARK   99  A    between atoms: _239  and  _242
REMARK  100  A    between atoms: _242  and  _243
REMARK  101  A    between atoms: _243  and  _244
REMARK  102  A    between atoms: _244  and  _245
REMARK  103  A    between atoms: _245  and  _246
REMARK  104  A    between atoms: _250  and  _252
REMARK  105  A    between atoms: _252  and  _253
REMARK  106  A    between atoms: _252  and  _255
REMARK  107  A    between atoms: _255  and  _256
REMARK  108  A    between atoms: _262  and  _264
REMARK  109  A    between atoms: _264  and  _265
REMARK  110  A    between atoms: _264  and  _267
REMARK  111  A    between atoms: _267  and  _268
REMARK  112  A    between atoms: _274  and  _276
REMARK  113  A    between atoms: _276  and  _277
REMARK  114  A    between atoms: _276  and  _279
REMARK  115  A    between atoms: _279  and  _280
REMARK  116  A    between atoms: _283  and  _285
REMARK  117  A    between atoms: _285  and  _286
REMARK  118  A    between atoms: _285  and  _288
REMARK  119  A    between atoms: _288  and  _289
REMARK  120  A    between atoms: _291  and  _293
REMARK  121  A    between atoms: _293  and  _294
REMARK  122  A    between atoms: _293  and  _296
REMARK  123  A    between atoms: _296  and  _297
REMARK  124  A    between atoms: _307  and  _309
REMARK  125  A    between atoms: _309  and  _310
REMARK  126  A    between atoms: _312  and  _314
REMARK  127  A    between atoms: _314  and  _315
REMARK  128  A    between atoms: _314  and  _317
REMARK  129  A    between atoms: _317  and  _318
REMARK  130  A    between atoms: _321  and  _323
REMARK  131  A    between atoms: _323  and  _324
REMARK  132  A    between atoms: _323  and  _326
REMARK  133  A    between atoms: _326  and  _327
REMARK  134  A    between atoms: _330  and  _332
REMARK  135  A    between atoms: _332  and  _333
REMARK  136  A    between atoms: _335  and  _337
REMARK  137  A    between atoms: _337  and  _338
REMARK  138  A    between atoms: _337  and  _340
REMARK  139  A    between atoms: _340  and  _341
REMARK  140  A    between atoms: _344  and  _346
REMARK  141  A    between atoms: _346  and  _347
REMARK  142  A    between atoms: _350  and  _352
REMARK  143  A    between atoms: _352  and  _353
REMARK  144  A    between atoms: _352  and  _355
REMARK  145  A    between atoms: _355  and  _356
REMARK  146  A    between atoms: _361  and  _362
REMARK  147  A    between atoms: _364  and  _366
REMARK  148  A    between atoms: _366  and  _367
REMARK  149  A    between atoms: _370  and  _372
REMARK  150  A    between atoms: _372  and  _373
REMARK  151  A    between atoms: _372  and  _375
REMARK  152  A    between atoms: _375  and  _376
REMARK  153  A    between atoms: _376  and  _377
REMARK  154  A    between atoms: _380  and  _382
REMARK  155  A    between atoms: _382  and  _383
REMARK  156  A    between atoms: _382  and  _385
REMARK  157  A    between atoms: _385  and  _386
REMARK  158  A    between atoms: _389  and  _391
REMARK  159  A    between atoms: _391  and  _392
REMARK  160  A    between atoms: _395  and  _397
REMARK  161  A    between atoms: _397  and  _398
REMARK  162  A    between atoms: _397  and  _400
REMARK  163  A    between atoms: _400  and  _401
REMARK  164  A    between atoms: _401  and  _402
REMARK  165  A    between atoms: _402  and  _403
REMARK  166  A    between atoms: _412  and  _414
REMARK  167  A    between atoms: _414  and  _415
REMARK  168  A    between atoms: _414  and  _417
REMARK  169  A    between atoms: _417  and  _418
REMARK  170  A    between atoms: _421  and  _423
REMARK  171  A    between atoms: _423  and  _424
REMARK  172  A    between atoms: _426  and  _428
REMARK  173  A    between atoms: _428  and  _429
REMARK  174  A    between atoms: _428  and  _431
REMARK  175  A    between atoms: _431  and  _432
REMARK  176  A    between atoms: _442  and  _444
REMARK  177  A    between atoms: _444  and  _445
REMARK  178  A    between atoms: _444  and  _447
REMARK  179  A    between atoms: _447  and  _448
REMARK  180  A    between atoms: _453  and  _454
REMARK  181  A    between atoms: _456  and  _458
REMARK  182  A    between atoms: _458  and  _459
REMARK  183  A    between atoms: _458  and  _461
REMARK  184  A    between atoms: _461  and  _462
REMARK  185  A    between atoms: _467  and  _468
REMARK  186  A    between atoms: _470  and  _472
REMARK  187  A    between atoms: _472  and  _473
REMARK  188  A    between atoms: _472  and  _475
REMARK  189  A    between atoms: _475  and  _476
REMARK  190  A    between atoms: _476  and  _477
REMARK  191  A    between atoms: _477  and  _478
REMARK  192  A    between atoms: _478  and  _479
REMARK  193  A    between atoms: _483  and  _485
REMARK  194  A    between atoms: _485  and  _486
REMARK  195  A    between atoms: _485  and  _488
REMARK  196  A    between atoms: _488  and  _489
REMARK  197  A    between atoms: _492  and  _494
REMARK  198  A    between atoms: _494  and  _495
REMARK  199  A    between atoms: _494  and  _497
REMARK  200  A    between atoms: _500  and  _502
REMARK  201  A    between atoms: _502  and  _503
REMARK  202  A    between atoms: _502  and  _505
REMARK  203  A    between atoms: _505  and  _506
REMARK  204  A    between atoms: _509  and  _511
REMARK  205  A    between atoms: _511  and  _512
REMARK  206  A    between atoms: _511  and  _514
REMARK  207  A    between atoms: _514  and  _515
REMARK  208  A    between atoms: _517  and  _519
REMARK  209  A    between atoms: _519  and  _520
REMARK  210  A    between atoms: _522  and  _524
REMARK  211  A    between atoms: _524  and  _525
REMARK  212  A    between atoms: _524  and  _527
REMARK  213  A    between atoms: _527  and  _528
REMARK  214  A    between atoms: _531  and  _533
REMARK  215  A    between atoms: _533  and  _534
REMARK  216  A    between atoms: _533  and  _536
REMARK  217  A    between atoms: _536  and  _537
REMARK  218  A    between atoms: _540  and  _542
REMARK  219  A    between atoms: _542  and  _543
REMARK  220  A    between atoms: _542  and  _545
REMARK  221  A    between atoms: _545  and  _546
REMARK  222  A    between atoms: _551  and  _553
REMARK  223  A    between atoms: _553  and  _554
REMARK  224  A    between atoms: _553  and  _556
REMARK  225  A    between atoms: _556  and  _557
REMARK  226  A    between atoms: _560  and  _562
REMARK  227  A    between atoms: _562  and  _563
REMARK  228  A    between atoms: _562  and  _565
REMARK  229  A    between atoms: _565  and  _566
REMARK  230  A    between atoms: _566  and  _567
REMARK  231  A    between atoms: _567  and  _568
REMARK  232  A    between atoms: _577  and  _579
REMARK  233  A    between atoms: _579  and  _580
REMARK  234  A    between atoms: _579  and  _582
REMARK  235  A    between atoms: _582  and  _583
REMARK  236  A    between atoms: _586  and  _588
REMARK  237  A    between atoms: _588  and  _589
REMARK  238  A    between atoms: _588  and  _591
REMARK  239  A    between atoms: _591  and  _592
REMARK  240  A    between atoms: _595  and  _597
REMARK  241  A    between atoms: _597  and  _598
REMARK  242  A    between atoms: _600  and  _602
REMARK  243  A    between atoms: _602  and  _603
REMARK  244  A    between atoms: _602  and  _605
REMARK  245  A    between atoms: _605  and  _606
REMARK  246  A    between atoms: _606  and  _607
REMARK  247  A    between atoms: _607  and  _608
REMARK  248  A    between atoms: _617  and  _619
REMARK  249  A    between atoms: _619  and  _620
REMARK  250  A    between atoms: _619  and  _622
REMARK  251  A    between atoms: _622  and  _623
REMARK  252  A    between atoms: _629  and  _631
REMARK  253  A    between atoms: _631  and  _632
REMARK  254  A    between atoms: _635  and  _637
REMARK  255  A    between atoms: _637  and  _638
REMARK  256  A    between atoms: _637  and  _640
REMARK  257  A    between atoms: _640  and  _641
REMARK  258  A    between atoms: _644  and  _646
REMARK  259  A    between atoms: _646  and  _647
REMARK  260  A    between atoms: _646  and  _649
REMARK  261  A    between atoms: _649  and  _650
REMARK  262  A    between atoms: _652  and  _654
REMARK  263  A    between atoms: _654  and  _655
REMARK  264  A    between atoms: _654  and  _657
REMARK  265  A    between atoms: _657  and  _658
REMARK  266  A    between atoms: _658  and  _659
REMARK  267  A    between atoms: _664  and  _666
REMARK  268  A    between atoms: _666  and  _667
REMARK  269  A    between atoms: _666  and  _669
REMARK  270  A    between atoms: _669  and  _670
REMARK  271  A    between atoms: _672  and  _674
REMARK  272  A    between atoms: _674  and  _675
REMARK  273  A    between atoms: _674  and  _677
REMARK  274  A    between atoms: _677  and  _678
REMARK  275  A    between atoms: _680  and  _682
REMARK  276  A    between atoms: _682  and  _683
REMARK  277  A    between atoms: _682  and  _685
REMARK  278  A    between atoms: _685  and  _686
REMARK  279  A    between atoms: _689  and  _691
REMARK  280  A    between atoms: _691  and  _692
REMARK  281  A    between atoms: _691  and  _694
REMARK  282  A    between atoms: _697  and  _699
REMARK  283  A    between atoms: _699  and  _700
REMARK  284  A    between atoms: _702  and  _704
REMARK  285  A    between atoms: _704  and  _705
REMARK  286  A    between atoms: _708  and  _710
REMARK  287  A    between atoms: _710  and  _711
REMARK  288  A    between atoms: _710  and  _713
REMARK  289  A    between atoms: _716  and  _718
REMARK  290  A    between atoms: _718  and  _719
REMARK  291  A    between atoms: _718  and  _721
REMARK  292  A    between atoms: _721  and  _722
REMARK  293  A    between atoms: _722  and  _723
REMARK  294  A    between atoms: _725  and  _727
REMARK  295  A    between atoms: _727  and  _728
REMARK  296  A    between atoms: _727  and  _730
REMARK  297  A    between atoms: _730  and  _731
REMARK  298  A    between atoms: _731  and  _732
REMARK                            x       y       z     vdW  Elec       q    Type
REMARK                         _______ _______ _______ _____ _____    ______ ____
ROOT
ATOM      1  O   HOH     1     -11.051   1.427  28.304  0.00  0.00    +0.000 OA
ENDROOT
TORSDOF 0
REMARK  Name = ../refined-set-2016/2vkm/2vkm_pocket.pdb
REMARK  298 active torsions:
REMARK  status: ('A' for Active; 'I' for Inactive)
REMARK    1  A    between atoms: _1  and  _3
REMARK    2  A    between atoms: _3  and  _4
REMARK    3  A    between atoms: _6  and  _8
REMARK    4  A    between atoms: _8  and  _9
REMARK    5  A    between atoms: _8  and  _11
REMARK    6  A    between atoms: _11  and  _12
REMARK    7  A    between atoms: _12  and  _13
REMARK    8  A    between atoms: _13  and  _14
REMARK    9  A    between atoms: _14  and  _15
REMARK   10  A    between atoms: _19  and  _21
REMARK   11  A    between atoms: _21  and  _22
REMARK   12  A    between atoms: _21  and  _24
REMARK   13  A    between atoms: _24  and  _25
REMARK   14  A    between atoms: _27  and  _29
REMARK   15  A    between atoms: _29  and  _30
REMARK   16  A    between atoms: _32  and  _34
REMARK   17  A    between atoms: _34  and  _35
REMARK   18  A    between atoms: _34  and  _37
REMARK   19  A    between atoms: _37  and  _38
REMARK   20  A    between atoms: _38  and  _39
REMARK   21  A    between atoms: _44  and  _46
REMARK   22  A    between atoms: _46  and  _47
REMARK   23  A    between atoms: _49  and  _51
REMARK   24  A    between atoms: _51  and  _52
REMARK   25  A    between atoms: _51  and  _54
REMARK   26  A    between atoms: _54  and  _55
REMARK   27  A    between atoms: _60  and  _61
REMARK   28  A    between atoms: _63  and  _65
REMARK   29  A    between atoms: _65  and  _66
REMARK   30  A    between atoms: _65  and  _68
REMARK   31  A    between atoms: _68  and  _69
REMARK   32  A    between atoms: _74  and  _75
REMARK   33  A    between atoms: _77  and  _79
REMARK   34  A    between atoms: _79  and  _80
REMARK   35  A    between atoms: _79  and  _82
REMARK   36  A    between atoms: _82  and  _83
REMARK   37  A    between atoms: _86  and  _88
REMARK   38  A    between atoms: _88  and  _89
REMARK   39  A    between atoms: _88  and  _91
REMARK   40  A    between atoms: _94  and  _96
REMARK   41  A    between atoms: _96  and  _97
REMARK   42  A    between atoms: _96  and  _99
REMARK   43  A    between atoms: _99  and  _100
REMARK   44  A    between atoms: _103  and  _105
REMARK   45  A    between atoms: _105  and  _106
REMARK   46  A    between atoms: _105  and  _108
REMARK   47  A    between atoms: _108  and  _109
REMARK   48  A    between atoms: _112  and  _114
REMARK   49  A    between atoms: _114  and  _115
REMARK   50  A    between atoms: _117  and  _119
REMARK   51  A    between atoms: _119  and  _120
REMARK   52  A    between atoms: _119  and  _122
REMARK   53  A    between atoms: _122  and  _123
REMARK   54  A    between atoms: _125  and  _127
REMARK   55  A    between atoms: _127  and  _128
REMARK   56  A    between atoms: _127  and  _130
REMARK   57  A    between atoms: _130  and  _131
REMARK   58  A    between atoms: _133  and  _135
REMARK   59  A    between atoms: _135  and  _136
REMARK   60  A    between atoms: _135  and  _138
REMARK   61  A    between atoms: _138  and  _139
REMARK   62  A    between atoms: _144  and  _146
REMARK   63  A    between atoms: _146  and  _147
REMARK   64  A    between atoms: _146  and  _149
REMARK   65  A    between atoms: _153  and  _154
REMARK   66  A    between atoms: _159  and  _161
REMARK   67  A    between atoms: _161  and  _162
REMARK   68  A    between atoms: _161  and  _164
REMARK   69  A    between atoms: _164  and  _165
REMARK   70  A    between atoms: _170  and  _171
REMARK   71  A    between atoms: _173  and  _175
REMARK   72  A    between atoms: _175  and  _176
REMARK   73  A    between atoms: _175  and  _178
REMARK   74  A    between atoms: _178  and  _179
REMARK   75  A    between atoms: _182  and  _184
REMARK   76  A    between atoms: _184  and  _185
REMARK   77  A    between atoms: _184  and  _187
REMARK   78  A    between atoms: _187  and  _188
REMARK   79  A    between atoms: _188  and  _189
REMARK   80  A    between atoms: _194  and  _196
REMARK   81  A    between atoms: _196  and  _197
REMARK   82  A    between atoms: _199  and  _201
REMARK   83  A    between atoms: _201  and  _202
REMARK   84  A    between atoms: _201  and  _204
REMARK   85  A    between atoms: _204  and  _205
REMARK   86  A    between atoms: _205  and  _206
REMARK   87  A    between atoms: _206  and  _207
REMARK   88  A    between atoms: _207  and  _208
REMARK   89  A    between atoms: _212  and  _214
REMARK   90  A    between atoms: _214  and  _215
REMARK   91  A    between atoms: _214  and  _217
REMARK   92  A    between atoms: _217  and  _218
REMARK   93  A    between atoms: _228  and  _230
REMARK   94  A    between atoms: _230  and  _231
REMARK   95  A    between atoms: _230  and  _233
REMARK   96  A    between atoms: _233  and  _234
REMARK   97  A    between atoms: _237  and  _239
REMARK   98  A    between atoms: _239  and  _240
REMARK   99  A    between atoms: _239  and  _242
REMARK  100  A    between atoms: _242  and  _243
REMARK  101  A    between atoms: _243  and  _244
REMARK  102  A    between atoms: _244  and  _245
REMARK  103  A    between atoms: _245  and  _246
REMARK  104  A    between atoms: _250  and  _252
REMARK  105  A    between atoms: _252  and  _253
REMARK  106  A    between atoms: _252  and  _255
REMARK  107  A    between atoms: _255  and  _256
REMARK  108  A    between atoms: _262  and  _264
REMARK  109  A    between atoms: _264  and  _265
REMARK  110  A    between atoms: _264  and  _267
REMARK  111  A    between atoms: _267  and  _268
REMARK  112  A    between atoms: _274  and  _276
REMARK  113  A    between atoms: _276  and  _277
REMARK  114  A    between atoms: _276  and  _279
REMARK  115  A    between atoms: _279  and  _280
REMARK  116  A    between atoms: _283  and  _285
REMARK  117  A    between atoms: _285  and  _286
REMARK  118  A    between atoms: _285  and  _288
REMARK  119  A    between atoms: _288  and  _289
REMARK  120  A    between atoms: _291  and  _293
REMARK  121  A    between atoms: _293  and  _294
REMARK  122  A    between atoms: _293  and  _296
REMARK  123  A    between atoms: _296  and  _297
REMARK  124  A    between atoms: _307  and  _309
REMARK  125  A    between atoms: _309  and  _310
REMARK  126  A    between atoms: _312  and  _314
REMARK  127  A    between atoms: _314  and  _315
REMARK  128  A    between atoms: _314  and  _317
REMARK  129  A    between atoms: _317  and  _318
REMARK  130  A    between atoms: _321  and  _323
REMARK  131  A    between atoms: _323  and  _324
REMARK  132  A    between atoms: _323  and  _326
REMARK  133  A    between atoms: _326  and  _327
REMARK  134  A    between atoms: _330  and  _332
REMARK  135  A    between atoms: _332  and  _333
REMARK  136  A    between atoms: _335  and  _337
REMARK  137  A    between atoms: _337  and  _338
REMARK  138  A    between atoms: _337  and  _340
REMARK  139  A    between atoms: _340  and  _341
REMARK  140  A    between atoms: _344  and  _346
REMARK  141  A    between atoms: _346  and  _347
REMARK  142  A    between atoms: _350  and  _352
REMARK  143  A    between atoms: _352  and  _353
REMARK  144  A    between atoms: _352  and  _355
REMARK  145  A    between atoms: _355  and  _356
REMARK  146  A    between atoms: _361  and  _362
REMARK  147  A    between atoms: _364  and  _366
REMARK  148  A    between atoms: _366  and  _367
REMARK  149  A    between atoms: _370  and  _372
REMARK  150  A    between atoms: _372  and  _373
REMARK  151  A    between atoms: _372  and  _375
REMARK  152  A    between atoms: _375  and  _376
REMARK  153  A    between atoms: _376  and  _377
REMARK  154  A    between atoms: _380  and  _382
REMARK  155  A    between atoms: _382  and  _383
REMARK  156  A    between atoms: _382  and  _385
REMARK  157  A    between atoms: _385  and  _386
REMARK  158  A    between atoms: _389  and  _391
REMARK  159  A    between atoms: _391  and  _392
REMARK  160  A    between atoms: _395  and  _397
REMARK  161  A    between atoms: _397  and  _398
REMARK  162  A    between atoms: _397  and  _400
REMARK  163  A    between atoms: _400  and  _401
REMARK  164  A    between atoms: _401  and  _402
REMARK  165  A    between atoms: _402  and  _403
REMARK  166  A    between atoms: _412  and  _414
REMARK  167  A    between atoms: _414  and  _415
REMARK  168  A    between atoms: _414  and  _417
REMARK  169  A    between atoms: _417  and  _418
REMARK  170  A    between atoms: _421  and  _423
REMARK  171  A    between atoms: _423  and  _424
REMARK  172  A    between atoms: _426  and  _428
REMARK  173  A    between atoms: _428  and  _429
REMARK  174  A    between atoms: _428  and  _431
REMARK  175  A    between atoms: _431  and  _432
REMARK  176  A    between atoms: _442  and  _444
REMARK  177  A    between atoms: _444  and  _445
REMARK  178  A    between atoms: _444  and  _447
REMARK  179  A    between atoms: _447  and  _448
REMARK  180  A    between atoms: _453  and  _454
REMARK  181  A    between atoms: _456  and  _458
REMARK  182  A    between atoms: _458  and  _459
REMARK  183  A    between atoms: _458  and  _461
REMARK  184  A    between atoms: _461  and  _462
REMARK  185  A    between atoms: _467  and  _468
REMARK  186  A    between atoms: _470  and  _472
REMARK  187  A    between atoms: _472  and  _473
REMARK  188  A    between atoms: _472  and  _475
REMARK  189  A    between atoms: _475  and  _476
REMARK  190  A    between atoms: _476  and  _477
REMARK  191  A    between atoms: _477  and  _478
REMARK  192  A    between atoms: _478  and  _479
REMARK  193  A    between atoms: _483  and  _485
REMARK  194  A    between atoms: _485  and  _486
REMARK  195  A    between atoms: _485  and  _488
REMARK  196  A    between atoms: _488  and  _489
REMARK  197  A    between atoms: _492  and  _494
REMARK  198  A    between atoms: _494  and  _495
REMARK  199  A    between atoms: _494  and  _497
REMARK  200  A    between atoms: _500  and  _502
REMARK  201  A    between atoms: _502  and  _503
REMARK  202  A    between atoms: _502  and  _505
REMARK  203  A    between atoms: _505  and  _506
REMARK  204  A    between atoms: _509  and  _511
REMARK  205  A    between atoms: _511  and  _512
REMARK  206  A    between atoms: _511  and  _514
REMARK  207  A    between atoms: _514  and  _515
REMARK  208  A    between atoms: _517  and  _519
REMARK  209  A    between atoms: _519  and  _520
REMARK  210  A    between atoms: _522  and  _524
REMARK  211  A    between atoms: _524  and  _525
REMARK  212  A    between atoms: _524  and  _527
REMARK  213  A    between atoms: _527  and  _528
REMARK  214  A    between atoms: _531  and  _533
REMARK  215  A    between atoms: _533  and  _534
REMARK  216  A    between atoms: _533  and  _536
REMARK  217  A    between atoms: _536  and  _537
REMARK  218  A    between atoms: _540  and  _542
REMARK  219  A    between atoms: _542  and  _543
REMARK  220  A    between atoms: _542  and  _545
REMARK  221  A    between atoms: _545  and  _546
REMARK  222  A    between atoms: _551  and  _553
REMARK  223  A    between atoms: _553  and  _554
REMARK  224  A    between atoms: _553  and  _556
REMARK  225  A    between atoms: _556  and  _557
REMARK  226  A    between atoms: _560  and  _562
REMARK  227  A    between atoms: _562  and  _563
REMARK  228  A    between atoms: _562  and  _565
REMARK  229  A    between atoms: _565  and  _566
REMARK  230  A    between atoms: _566  and  _567
REMARK  231  A    between atoms: _567  and  _568
REMARK  232  A    between atoms: _577  and  _579
REMARK  233  A    between atoms: _579  and  _580
REMARK  234  A    between atoms: _579  and  _582
REMARK  235  A    between atoms: _582  and  _583
REMARK  236  A    between atoms: _586  and  _588
REMARK  237  A    between atoms: _588  and  _589
REMARK  238  A    between atoms: _588  and  _591
REMARK  239  A    between atoms: _591  and  _592
REMARK  240  A    between atoms: _595  and  _597
REMARK  241  A    between atoms: _597  and  _598
REMARK  242  A    between atoms: _600  and  _602
REMARK  243  A    between atoms: _602  and  _603
REMARK  244  A    between atoms: _602  and  _605
REMARK  245  A    between atoms: _605  and  _606
REMARK  246  A    between atoms: _606  and  _607
REMARK  247  A    between atoms: _607  and  _608
REMARK  248  A    between atoms: _617  and  _619
REMARK  249  A    between atoms: _619  and  _620
REMARK  250  A    between atoms: _619  and  _622
REMARK  251  A    between atoms: _622  and  _623
REMARK  252  A    between atoms: _629  and  _631
REMARK  253  A    between atoms: _631  and  _632
REMARK  254  A    between atoms: _635  and  _637
REMARK  255  A    between atoms: _637  and  _638
REMARK  256  A    between atoms: _637  and  _640
REMARK  257  A    between atoms: _640  and  _641
REMARK  258  A    between atoms: _644  and  _646
REMARK  259  A    between atoms: _646  and  _647
REMARK  260  A    between atoms: _646  and  _649
REMARK  261  A    between atoms: _649  and  _650
REMARK  262  A    between atoms: _652  and  _654
REMARK  263  A    between atoms: _654  and  _655
REMARK  264  A    between atoms: _654  and  _657
REMARK  265  A    between atoms: _657  and  _658
REMARK  266  A    between atoms: _658  and  _659
REMARK  267  A    between atoms: _664  and  _666
REMARK  268  A    between atoms: _666  and  _667
REMARK  269  A    between atoms: _666  and  _669
REMARK  270  A    between atoms: _669  and  _670
REMARK  271  A    between atoms: _672  and  _674
REMARK  272  A    between atoms: _674  and  _675
REMARK  273  A    between atoms: _674  and  _677
REMARK  274  A    between atoms: _677  and  _678
REMARK  275  A    between atoms: _680  and  _682
REMARK  276  A    between atoms: _682  and  _683
REMARK  277  A    between atoms: _682  and  _685
REMARK  278  A    between atoms: _685  and  _686
REMARK  279  A    between atoms: _689  and  _691
REMARK  280  A    between atoms: _691  and  _692
REMARK  281  A    between atoms: _691  and  _694
REMARK  282  A    between atoms: _697  and  _699
REMARK  283  A    between atoms: _699  and  _700
REMARK  284  A    between atoms: _702  and  _704
REMARK  285  A    between atoms: _704  and  _705
REMARK  286  A    between atoms: _708  and  _710
REMARK  287  A    between atoms: _710  and  _711
REMARK  288  A    between atoms: _710  and  _713
REMARK  289  A    between atoms: _716  and  _718
REMARK  290  A    between atoms: _718  and  _719
REMARK  291  A    between atoms: _718  and  _721
REMARK  292  A    between atoms: _721  and  _722
REMARK  293  A    between atoms: _722  and  _723
REMARK  294  A    between atoms: _725  and  _727
REMARK  295  A    between atoms: _727  and  _728
REMARK  296  A    between atoms: _727  and  _730
REMARK  297  A    between atoms: _730  and  _731
REMARK  298  A    between atoms: _731  and  _732
REMARK                            x       y       z     vdW  Elec       q    Type
REMARK                         _______ _______ _______ _____ _____    ______ ____
ROOT
ATOM      1  O   HOH     1      -6.805   2.978  38.509  0.00  0.00    +0.000 OA
ENDROOT
TORSDOF 0
REMARK  Name = ../refined-set-2016/2vkm/2vkm_pocket.pdb
REMARK  298 active torsions:
REMARK  status: ('A' for Active; 'I' for Inactive)
REMARK    1  A    between atoms: _1  and  _3
REMARK    2  A    between atoms: _3  and  _4
REMARK    3  A    between atoms: _6  and  _8
REMARK    4  A    between atoms: _8  and  _9
REMARK    5  A    between atoms: _8  and  _11
REMARK    6  A    between atoms: _11  and  _12
REMARK    7  A    between atoms: _12  and  _13
REMARK    8  A    between atoms: _13  and  _14
REMARK    9  A    between atoms: _14  and  _15
REMARK   10  A    between atoms: _19  and  _21
REMARK   11  A    between atoms: _21  and  _22
REMARK   12  A    between atoms: _21  and  _24
REMARK   13  A    between atoms: _24  and  _25
REMARK   14  A    between atoms: _27  and  _29
REMARK   15  A    between atoms: _29  and  _30
REMARK   16  A    between atoms: _32  and  _34
REMARK   17  A    between atoms: _34  and  _35
REMARK   18  A    between atoms: _34  and  _37
REMARK   19  A    between atoms: _37  and  _38
REMARK   20  A    between atoms: _38  and  _39
REMARK   21  A    between atoms: _44  and  _46
REMARK   22  A    between atoms: _46  and  _47
REMARK   23  A    between atoms: _49  and  _51
REMARK   24  A    between atoms: _51  and  _52
REMARK   25  A    between atoms: _51  and  _54
REMARK   26  A    between atoms: _54  and  _55
REMARK   27  A    between atoms: _60  and  _61
REMARK   28  A    between atoms: _63  and  _65
REMARK   29  A    between atoms: _65  and  _66
REMARK   30  A    between atoms: _65  and  _68
REMARK   31  A    between atoms: _68  and  _69
REMARK   32  A    between atoms: _74  and  _75
REMARK   33  A    between atoms: _77  and  _79
REMARK   34  A    between atoms: _79  and  _80
REMARK   35  A    between atoms: _79  and  _82
REMARK   36  A    between atoms: _82  and  _83
REMARK   37  A    between atoms: _86  and  _88
REMARK   38  A    between atoms: _88  and  _89
REMARK   39  A    between atoms: _88  and  _91
REMARK   40  A    between atoms: _94  and  _96
REMARK   41  A    between atoms: _96  and  _97
REMARK   42  A    between atoms: _96  and  _99
REMARK   43  A    between atoms: _99  and  _100
REMARK   44  A    between atoms: _103  and  _105
REMARK   45  A    between atoms: _105  and  _106
REMARK   46  A    between atoms: _105  and  _108
REMARK   47  A    between atoms: _108  and  _109
REMARK   48  A    between atoms: _112  and  _114
REMARK   49  A    between atoms: _114  and  _115
REMARK   50  A    between atoms: _117  and  _119
REMARK   51  A    between atoms: _119  and  _120
REMARK   52  A    between atoms: _119  and  _122
REMARK   53  A    between atoms: _122  and  _123
REMARK   54  A    between atoms: _125  and  _127
REMARK   55  A    between atoms: _127  and  _128
REMARK   56  A    between atoms: _127  and  _130
REMARK   57  A    between atoms: _130  and  _131
REMARK   58  A    between atoms: _133  and  _135
REMARK   59  A    between atoms: _135  and  _136
REMARK   60  A    between atoms: _135  and  _138
REMARK   61  A    between atoms: _138  and  _139
REMARK   62  A    between atoms: _144  and  _146
REMARK   63  A    between atoms: _146  and  _147
REMARK   64  A    between atoms: _146  and  _149
REMARK   65  A    between atoms: _153  and  _154
REMARK   66  A    between atoms: _159  and  _161
REMARK   67  A    between atoms: _161  and  _162
REMARK   68  A    between atoms: _161  and  _164
REMARK   69  A    between atoms: _164  and  _165
REMARK   70  A    between atoms: _170  and  _171
REMARK   71  A    between atoms: _173  and  _175
REMARK   72  A    between atoms: _175  and  _176
REMARK   73  A    between atoms: _175  and  _178
REMARK   74  A    between atoms: _178  and  _179
REMARK   75  A    between atoms: _182  and  _184
REMARK   76  A    between atoms: _184  and  _185
REMARK   77  A    between atoms: _184  and  _187
REMARK   78  A    between atoms: _187  and  _188
REMARK   79  A    between atoms: _188  and  _189
REMARK   80  A    between atoms: _194  and  _196
REMARK   81  A    between atoms: _196  and  _197
REMARK   82  A    between atoms: _199  and  _201
REMARK   83  A    between atoms: _201  and  _202
REMARK   84  A    between atoms: _201  and  _204
REMARK   85  A    between atoms: _204  and  _205
REMARK   86  A    between atoms: _205  and  _206
REMARK   87  A    between atoms: _206  and  _207
REMARK   88  A    between atoms: _207  and  _208
REMARK   89  A    between atoms: _212  and  _214
REMARK   90  A    between atoms: _214  and  _215
REMARK   91  A    between atoms: _214  and  _217
REMARK   92  A    between atoms: _217  and  _218
REMARK   93  A    between atoms: _228  and  _230
REMARK   94  A    between atoms: _230  and  _231
REMARK   95  A    between atoms: _230  and  _233
REMARK   96  A    between atoms: _233  and  _234
REMARK   97  A    between atoms: _237  and  _239
REMARK   98  A    between atoms: _239  and  _240
REMARK   99  A    between atoms: _239  and  _242
REMARK  100  A    between atoms: _242  and  _243
REMARK  101  A    between atoms: _243  and  _244
REMARK  102  A    between atoms: _244  and  _245
REMARK  103  A    between atoms: _245  and  _246
REMARK  104  A    between atoms: _250  and  _252
REMARK  105  A    between atoms: _252  and  _253
REMARK  106  A    between atoms: _252  and  _255
REMARK  107  A    between atoms: _255  and  _256
REMARK  108  A    between atoms: _262  and  _264
REMARK  109  A    between atoms: _264  and  _265
REMARK  110  A    between atoms: _264  and  _267
REMARK  111  A    between atoms: _267  and  _268
REMARK  112  A    between atoms: _274  and  _276
REMARK  113  A    between atoms: _276  and  _277
REMARK  114  A    between atoms: _276  and  _279
REMARK  115  A    between atoms: _279  and  _280
REMARK  116  A    between atoms: _283  and  _285
REMARK  117  A    between atoms: _285  and  _286
REMARK  118  A    between atoms: _285  and  _288
REMARK  119  A    between atoms: _288  and  _289
REMARK  120  A    between atoms: _291  and  _293
REMARK  121  A    between atoms: _293  and  _294
REMARK  122  A    between atoms: _293  and  _296
REMARK  123  A    between atoms: _296  and  _297
REMARK  124  A    between atoms: _307  and  _309
REMARK  125  A    between atoms: _309  and  _310
REMARK  126  A    between atoms: _312  and  _314
REMARK  127  A    between atoms: _314  and  _315
REMARK  128  A    between atoms: _314  and  _317
REMARK  129  A    between atoms: _317  and  _318
REMARK  130  A    between atoms: _321  and  _323
REMARK  131  A    between atoms: _323  and  _324
REMARK  132  A    between atoms: _323  and  _326
REMARK  133  A    between atoms: _326  and  _327
REMARK  134  A    between atoms: _330  and  _332
REMARK  135  A    between atoms: _332  and  _333
REMARK  136  A    between atoms: _335  and  _337
REMARK  137  A    between atoms: _337  and  _338
REMARK  138  A    between atoms: _337  and  _340
REMARK  139  A    between atoms: _340  and  _341
REMARK  140  A    between atoms: _344  and  _346
REMARK  141  A    between atoms: _346  and  _347
REMARK  142  A    between atoms: _350  and  _352
REMARK  143  A    between atoms: _352  and  _353
REMARK  144  A    between atoms: _352  and  _355
REMARK  145  A    between atoms: _355  and  _356
REMARK  146  A    between atoms: _361  and  _362
REMARK  147  A    between atoms: _364  and  _366
REMARK  148  A    between atoms: _366  and  _367
REMARK  149  A    between atoms: _370  and  _372
REMARK  150  A    between atoms: _372  and  _373
REMARK  151  A    between atoms: _372  and  _375
REMARK  152  A    between atoms: _375  and  _376
REMARK  153  A    between atoms: _376  and  _377
REMARK  154  A    between atoms: _380  and  _382
REMARK  155  A    between atoms: _382  and  _383
REMARK  156  A    between atoms: _382  and  _385
REMARK  157  A    between atoms: _385  and  _386
REMARK  158  A    between atoms: _389  and  _391
REMARK  159  A    between atoms: _391  and  _392
REMARK  160  A    between atoms: _395  and  _397
REMARK  161  A    between atoms: _397  and  _398
REMARK  162  A    between atoms: _397  and  _400
REMARK  163  A    between atoms: _400  and  _401
REMARK  164  A    between atoms: _401  and  _402
REMARK  165  A    between atoms: _402  and  _403
REMARK  166  A    between atoms: _412  and  _414
REMARK  167  A    between atoms: _414  and  _415
REMARK  168  A    between atoms: _414  and  _417
REMARK  169  A    between atoms: _417  and  _418
REMARK  170  A    between atoms: _421  and  _423
REMARK  171  A    between atoms: _423  and  _424
REMARK  172  A    between atoms: _426  and  _428
REMARK  173  A    between atoms: _428  and  _429
REMARK  174  A    between atoms: _428  and  _431
REMARK  175  A    between atoms: _431  and  _432
REMARK  176  A    between atoms: _442  and  _444
REMARK  177  A    between atoms: _444  and  _445
REMARK  178  A    between atoms: _444  and  _447
REMARK  179  A    between atoms: _447  and  _448
REMARK  180  A    between atoms: _453  and  _454
REMARK  181  A    between atoms: _456  and  _458
REMARK  182  A    between atoms: _458  and  _459
REMARK  183  A    between atoms: _458  and  _461
REMARK  184  A    between atoms: _461  and  _462
REMARK  185  A    between atoms: _467  and  _468
REMARK  186  A    between atoms: _470  and  _472
REMARK  187  A    between atoms: _472  and  _473
REMARK  188  A    between atoms: _472  and  _475
REMARK  189  A    between atoms: _475  and  _476
REMARK  190  A    between atoms: _476  and  _477
REMARK  191  A    between atoms: _477  and  _478
REMARK  192  A    between atoms: _478  and  _479
REMARK  193  A    between atoms: _483  and  _485
REMARK  194  A    between atoms: _485  and  _486
REMARK  195  A    between atoms: _485  and  _488
REMARK  196  A    between atoms: _488  and  _489
REMARK  197  A    between atoms: _492  and  _494
REMARK  198  A    between atoms: _494  and  _495
REMARK  199  A    between atoms: _494  and  _497
REMARK  200  A    between atoms: _500  and  _502
REMARK  201  A    between atoms: _502  and  _503
REMARK  202  A    between atoms: _502  and  _505
REMARK  203  A    between atoms: _505  and  _506
REMARK  204  A    between atoms: _509  and  _511
REMARK  205  A    between atoms: _511  and  _512
REMARK  206  A    between atoms: _511  and  _514
REMARK  207  A    between atoms: _514  and  _515
REMARK  208  A    between atoms: _517  and  _519
REMARK  209  A    between atoms: _519  and  _520
REMARK  210  A    between atoms: _522  and  _524
REMARK  211  A    between atoms: _524  and  _525
REMARK  212  A    between atoms: _524  and  _527
REMARK  213  A    between atoms: _527  and  _528
REMARK  214  A    between atoms: _531  and  _533
REMARK  215  A    between atoms: _533  and  _534
REMARK  216  A    between atoms: _533  and  _536
REMARK  217  A    between atoms: _536  and  _537
REMARK  218  A    between atoms: _540  and  _542
REMARK  219  A    between atoms: _542  and  _543
REMARK  220  A    between atoms: _542  and  _545
REMARK  221  A    between atoms: _545  and  _546
REMARK  222  A    between atoms: _551  and  _553
REMARK  223  A    between atoms: _553  and  _554
REMARK  224  A    between atoms: _553  and  _556
REMARK  225  A    between atoms: _556  and  _557
REMARK  226  A    between atoms: _560  and  _562
REMARK  227  A    between atoms: _562  and  _563
REMARK  228  A    between atoms: _562  and  _565
REMARK  229  A    between atoms: _565  and  _566
REMARK  230  A    between atoms: _566  and  _567
REMARK  231  A    between atoms: _567  and  _568
REMARK  232  A    between atoms: _577  and  _579
REMARK  233  A    between atoms: _579  and  _580
REMARK  234  A    between atoms: _579  and  _582
REMARK  235  A    between atoms: _582  and  _583
REMARK  236  A    between atoms: _586  and  _588
REMARK  237  A    between atoms: _588  and  _589
REMARK  238  A    between atoms: _588  and  _591
REMARK  239  A    between atoms: _591  and  _592
REMARK  240  A    between atoms: _595  and  _597
REMARK  241  A    between atoms: _597  and  _598
REMARK  242  A    between atoms: _600  and  _602
REMARK  243  A    between atoms: _602  and  _603
REMARK  244  A    between atoms: _602  and  _605
REMARK  245  A    between atoms: _605  and  _606
REMARK  246  A    between atoms: _606  and  _607
REMARK  247  A    between atoms: _607  and  _608
REMARK  248  A    between atoms: _617  and  _619
REMARK  249  A    between atoms: _619  and  _620
REMARK  250  A    between atoms: _619  and  _622
REMARK  251  A    between atoms: _622  and  _623
REMARK  252  A    between atoms: _629  and  _631
REMARK  253  A    between atoms: _631  and  _632
REMARK  254  A    between atoms: _635  and  _637
REMARK  255  A    between atoms: _637  and  _638
REMARK  256  A    between atoms: _637  and  _640
REMARK  257  A    between atoms: _640  and  _641
REMARK  258  A    between atoms: _644  and  _646
REMARK  259  A    between atoms: _646  and  _647
REMARK  260  A    between atoms: _646  and  _649
REMARK  261  A    between atoms: _649  and  _650
REMARK  262  A    between atoms: _652  and  _654
REMARK  263  A    between atoms: _654  and  _655
REMARK  264  A    between atoms: _654  and  _657
REMARK  265  A    between atoms: _657  and  _658
REMARK  266  A    between atoms: _658  and  _659
REMARK  267  A    between atoms: _664  and  _666
REMARK  268  A    between atoms: _666  and  _667
REMARK  269  A    between atoms: _666  and  _669
REMARK  270  A    between atoms: _669  and  _670
REMARK  271  A    between atoms: _672  and  _674
REMARK  272  A    between atoms: _674  and  _675
REMARK  273  A    between atoms: _674  and  _677
REMARK  274  A    between atoms: _677  and  _678
REMARK  275  A    between atoms: _680  and  _682
REMARK  276  A    between atoms: _682  and  _683
REMARK  277  A    between atoms: _682  and  _685
REMARK  278  A    between atoms: _685  and  _686
REMARK  279  A    between atoms: _689  and  _691
REMARK  280  A    between atoms: _691  and  _692
REMARK  281  A    between atoms: _691  and  _694
REMARK  282  A    between atoms: _697  and  _699
REMARK  283  A    between atoms: _699  and  _700
REMARK  284  A    between atoms: _702  and  _704
REMARK  285  A    between atoms: _704  and  _705
REMARK  286  A    between atoms: _708  and  _710
REMARK  287  A    between atoms: _710  and  _711
REMARK  288  A    between atoms: _710  and  _713
REMARK  289  A    between atoms: _716  and  _718
REMARK  290  A    between atoms: _718  and  _719
REMARK  291  A    between atoms: _718  and  _721
REMARK  292  A    between atoms: _721  and  _722
REMARK  293  A    between atoms: _722  and  _723
REMARK  294  A    between atoms: _725  and  _727
REMARK  295  A    between atoms: _727  and  _728
REMARK  296  A    between atoms: _727  and  _730
REMARK  297  A    between atoms: _730  and  _731
REMARK  298  A    between atoms: _731  and  _732
REMARK                            x       y       z     vdW  Elec       q    Type
REMARK                         _______ _______ _______ _____ _____    ______ ____
ROOT
ATOM      1  O   HOH     1      -9.366  -7.548  37.221  0.00  0.00    +0.000 OA
ENDROOT
TORSDOF 0
REMARK  Name = ../refined-set-2016/2vkm/2vkm_pocket.pdb
REMARK  298 active torsions:
REMARK  status: ('A' for Active; 'I' for Inactive)
REMARK    1  A    between atoms: _1  and  _3
REMARK    2  A    between atoms: _3  and  _4
REMARK    3  A    between atoms: _6  and  _8
REMARK    4  A    between atoms: _8  and  _9
REMARK    5  A    between atoms: _8  and  _11
REMARK    6  A    between atoms: _11  and  _12
REMARK    7  A    between atoms: _12  and  _13
REMARK    8  A    between atoms: _13  and  _14
REMARK    9  A    between atoms: _14  and  _15
REMARK   10  A    between atoms: _19  and  _21
REMARK   11  A    between atoms: _21  and  _22
REMARK   12  A    between atoms: _21  and  _24
REMARK   13  A    between atoms: _24  and  _25
REMARK   14  A    between atoms: _27  and  _29
REMARK   15  A    between atoms: _29  and  _30
REMARK   16  A    between atoms: _32  and  _34
REMARK   17  A    between atoms: _34  and  _35
REMARK   18  A    between atoms: _34  and  _37
REMARK   19  A    between atoms: _37  and  _38
REMARK   20  A    between atoms: _38  and  _39
REMARK   21  A    between atoms: _44  and  _46
REMARK   22  A    between atoms: _46  and  _47
REMARK   23  A    between atoms: _49  and  _51
REMARK   24  A    between atoms: _51  and  _52
REMARK   25  A    between atoms: _51  and  _54
REMARK   26  A    between atoms: _54  and  _55
REMARK   27  A    between atoms: _60  and  _61
REMARK   28  A    between atoms: _63  and  _65
REMARK   29  A    between atoms: _65  and  _66
REMARK   30  A    between atoms: _65  and  _68
REMARK   31  A    between atoms: _68  and  _69
REMARK   32  A    between atoms: _74  and  _75
REMARK   33  A    between atoms: _77  and  _79
REMARK   34  A    between atoms: _79  and  _80
REMARK   35  A    between atoms: _79  and  _82
REMARK   36  A    between atoms: _82  and  _83
REMARK   37  A    between atoms: _86  and  _88
REMARK   38  A    between atoms: _88  and  _89
REMARK   39  A    between atoms: _88  and  _91
REMARK   40  A    between atoms: _94  and  _96
REMARK   41  A    between atoms: _96  and  _97
REMARK   42  A    between atoms: _96  and  _99
REMARK   43  A    between atoms: _99  and  _100
REMARK   44  A    between atoms: _103  and  _105
REMARK   45  A    between atoms: _105  and  _106
REMARK   46  A    between atoms: _105  and  _108
REMARK   47  A    between atoms: _108  and  _109
REMARK   48  A    between atoms: _112  and  _114
REMARK   49  A    between atoms: _114  and  _115
REMARK   50  A    between atoms: _117  and  _119
REMARK   51  A    between atoms: _119  and  _120
REMARK   52  A    between atoms: _119  and  _122
REMARK   53  A    between atoms: _122  and  _123
REMARK   54  A    between atoms: _125  and  _127
REMARK   55  A    between atoms: _127  and  _128
REMARK   56  A    between atoms: _127  and  _130
REMARK   57  A    between atoms: _130  and  _131
REMARK   58  A    between atoms: _133  and  _135
REMARK   59  A    between atoms: _135  and  _136
REMARK   60  A    between atoms: _135  and  _138
REMARK   61  A    between atoms: _138  and  _139
REMARK   62  A    between atoms: _144  and  _146
REMARK   63  A    between atoms: _146  and  _147
REMARK   64  A    between atoms: _146  and  _149
REMARK   65  A    between atoms: _153  and  _154
REMARK   66  A    between atoms: _159  and  _161
REMARK   67  A    between atoms: _161  and  _162
REMARK   68  A    between atoms: _161  and  _164
REMARK   69  A    between atoms: _164  and  _165
REMARK   70  A    between atoms: _170  and  _171
REMARK   71  A    between atoms: _173  and  _175
REMARK   72  A    between atoms: _175  and  _176
REMARK   73  A    between atoms: _175  and  _178
REMARK   74  A    between atoms: _178  and  _179
REMARK   75  A    between atoms: _182  and  _184
REMARK   76  A    between atoms: _184  and  _185
REMARK   77  A    between atoms: _184  and  _187
REMARK   78  A    between atoms: _187  and  _188
REMARK   79  A    between atoms: _188  and  _189
REMARK   80  A    between atoms: _194  and  _196
REMARK   81  A    between atoms: _196  and  _197
REMARK   82  A    between atoms: _199  and  _201
REMARK   83  A    between atoms: _201  and  _202
REMARK   84  A    between atoms: _201  and  _204
REMARK   85  A    between atoms: _204  and  _205
REMARK   86  A    between atoms: _205  and  _206
REMARK   87  A    between atoms: _206  and  _207
REMARK   88  A    between atoms: _207  and  _208
REMARK   89  A    between atoms: _212  and  _214
REMARK   90  A    between atoms: _214  and  _215
REMARK   91  A    between atoms: _214  and  _217
REMARK   92  A    between atoms: _217  and  _218
REMARK   93  A    between atoms: _228  and  _230
REMARK   94  A    between atoms: _230  and  _231
REMARK   95  A    between atoms: _230  and  _233
REMARK   96  A    between atoms: _233  and  _234
REMARK   97  A    between atoms: _237  and  _239
REMARK   98  A    between atoms: _239  and  _240
REMARK   99  A    between atoms: _239  and  _242
REMARK  100  A    between atoms: _242  and  _243
REMARK  101  A    between atoms: _243  and  _244
REMARK  102  A    between atoms: _244  and  _245
REMARK  103  A    between atoms: _245  and  _246
REMARK  104  A    between atoms: _250  and  _252
REMARK  105  A    between atoms: _252  and  _253
REMARK  106  A    between atoms: _252  and  _255
REMARK  107  A    between atoms: _255  and  _256
REMARK  108  A    between atoms: _262  and  _264
REMARK  109  A    between atoms: _264  and  _265
REMARK  110  A    between atoms: _264  and  _267
REMARK  111  A    between atoms: _267  and  _268
REMARK  112  A    between atoms: _274  and  _276
REMARK  113  A    between atoms: _276  and  _277
REMARK  114  A    between atoms: _276  and  _279
REMARK  115  A    between atoms: _279  and  _280
REMARK  116  A    between atoms: _283  and  _285
REMARK  117  A    between atoms: _285  and  _286
REMARK  118  A    between atoms: _285  and  _288
REMARK  119  A    between atoms: _288  and  _289
REMARK  120  A    between atoms: _291  and  _293
REMARK  121  A    between atoms: _293  and  _294
REMARK  122  A    between atoms: _293  and  _296
REMARK  123  A    between atoms: _296  and  _297
REMARK  124  A    between atoms: _307  and  _309
REMARK  125  A    between atoms: _309  and  _310
REMARK  126  A    between atoms: _312  and  _314
REMARK  127  A    between atoms: _314  and  _315
REMARK  128  A    between atoms: _314  and  _317
REMARK  129  A    between atoms: _317  and  _318
REMARK  130  A    between atoms: _321  and  _323
REMARK  131  A    between atoms: _323  and  _324
REMARK  132  A    between atoms: _323  and  _326
REMARK  133  A    between atoms: _326  and  _327
REMARK  134  A    between atoms: _330  and  _332
REMARK  135  A    between atoms: _332  and  _333
REMARK  136  A    between atoms: _335  and  _337
REMARK  137  A    between atoms: _337  and  _338
REMARK  138  A    between atoms: _337  and  _340
REMARK  139  A    between atoms: _340  and  _341
REMARK  140  A    between atoms: _344  and  _346
REMARK  141  A    between atoms: _346  and  _347
REMARK  142  A    between atoms: _350  and  _352
REMARK  143  A    between atoms: _352  and  _353
REMARK  144  A    between atoms: _352  and  _355
REMARK  145  A    between atoms: _355  and  _356
REMARK  146  A    between atoms: _361  and  _362
REMARK  147  A    between atoms: _364  and  _366
REMARK  148  A    between atoms: _366  and  _367
REMARK  149  A    between atoms: _370  and  _372
REMARK  150  A    between atoms: _372  and  _373
REMARK  151  A    between atoms: _372  and  _375
REMARK  152  A    between atoms: _375  and  _376
REMARK  153  A    between atoms: _376  and  _377
REMARK  154  A    between atoms: _380  and  _382
REMARK  155  A    between atoms: _382  and  _383
REMARK  156  A    between atoms: _382  and  _385
REMARK  157  A    between atoms: _385  and  _386
REMARK  158  A    between atoms: _389  and  _391
REMARK  159  A    between atoms: _391  and  _392
REMARK  160  A    between atoms: _395  and  _397
REMARK  161  A    between atoms: _397  and  _398
REMARK  162  A    between atoms: _397  and  _400
REMARK  163  A    between atoms: _400  and  _401
REMARK  164  A    between atoms: _401  and  _402
REMARK  165  A    between atoms: _402  and  _403
REMARK  166  A    between atoms: _412  and  _414
REMARK  167  A    between atoms: _414  and  _415
REMARK  168  A    between atoms: _414  and  _417
REMARK  169  A    between atoms: _417  and  _418
REMARK  170  A    between atoms: _421  and  _423
REMARK  171  A    between atoms: _423  and  _424
REMARK  172  A    between atoms: _426  and  _428
REMARK  173  A    between atoms: _428  and  _429
REMARK  174  A    between atoms: _428  and  _431
REMARK  175  A    between atoms: _431  and  _432
REMARK  176  A    between atoms: _442  and  _444
REMARK  177  A    between atoms: _444  and  _445
REMARK  178  A    between atoms: _444  and  _447
REMARK  179  A    between atoms: _447  and  _448
REMARK  180  A    between atoms: _453  and  _454
REMARK  181  A    between atoms: _456  and  _458
REMARK  182  A    between atoms: _458  and  _459
REMARK  183  A    between atoms: _458  and  _461
REMARK  184  A    between atoms: _461  and  _462
REMARK  185  A    between atoms: _467  and  _468
REMARK  186  A    between atoms: _470  and  _472
REMARK  187  A    between atoms: _472  and  _473
REMARK  188  A    between atoms: _472  and  _475
REMARK  189  A    between atoms: _475  and  _476
REMARK  190  A    between atoms: _476  and  _477
REMARK  191  A    between atoms: _477  and  _478
REMARK  192  A    between atoms: _478  and  _479
REMARK  193  A    between atoms: _483  and  _485
REMARK  194  A    between atoms: _485  and  _486
REMARK  195  A    between atoms: _485  and  _488
REMARK  196  A    between atoms: _488  and  _489
REMARK  197  A    between atoms: _492  and  _494
REMARK  198  A    between atoms: _494  and  _495
REMARK  199  A    between atoms: _494  and  _497
REMARK  200  A    between atoms: _500  and  _502
REMARK  201  A    between atoms: _502  and  _503
REMARK  202  A    between atoms: _502  and  _505
REMARK  203  A    between atoms: _505  and  _506
REMARK  204  A    between atoms: _509  and  _511
REMARK  205  A    between atoms: _511  and  _512
REMARK  206  A    between atoms: _511  and  _514
REMARK  207  A    between atoms: _514  and  _515
REMARK  208  A    between atoms: _517  and  _519
REMARK  209  A    between atoms: _519  and  _520
REMARK  210  A    between atoms: _522  and  _524
REMARK  211  A    between atoms: _524  and  _525
REMARK  212  A    between atoms: _524  and  _527
REMARK  213  A    between atoms: _527  and  _528
REMARK  214  A    between atoms: _531  and  _533
REMARK  215  A    between atoms: _533  and  _534
REMARK  216  A    between atoms: _533  and  _536
REMARK  217  A    between atoms: _536  and  _537
REMARK  218  A    between atoms: _540  and  _542
REMARK  219  A    between atoms: _542  and  _543
REMARK  220  A    between atoms: _542  and  _545
REMARK  221  A    between atoms: _545  and  _546
REMARK  222  A    between atoms: _551  and  _553
REMARK  223  A    between atoms: _553  and  _554
REMARK  224  A    between atoms: _553  and  _556
REMARK  225  A    between atoms: _556  and  _557
REMARK  226  A    between atoms: _560  and  _562
REMARK  227  A    between atoms: _562  and  _563
REMARK  228  A    between atoms: _562  and  _565
REMARK  229  A    between atoms: _565  and  _566
REMARK  230  A    between atoms: _566  and  _567
REMARK  231  A    between atoms: _567  and  _568
REMARK  232  A    between atoms: _577  and  _579
REMARK  233  A    between atoms: _579  and  _580
REMARK  234  A    between atoms: _579  and  _582
REMARK  235  A    between atoms: _582  and  _583
REMARK  236  A    between atoms: _586  and  _588
REMARK  237  A    between atoms: _588  and  _589
REMARK  238  A    between atoms: _588  and  _591
REMARK  239  A    between atoms: _591  and  _592
REMARK  240  A    between atoms: _595  and  _597
REMARK  241  A    between atoms: _597  and  _598
REMARK  242  A    between atoms: _600  and  _602
REMARK  243  A    between atoms: _602  and  _603
REMARK  244  A    between atoms: _602  and  _605
REMARK  245  A    between atoms: _605  and  _606
REMARK  246  A    between atoms: _606  and  _607
REMARK  247  A    between atoms: _607  and  _608
REMARK  248  A    between atoms: _617  and  _619
REMARK  249  A    between atoms: _619  and  _620
REMARK  250  A    between atoms: _619  and  _622
REMARK  251  A    between atoms: _622  and  _623
REMARK  252  A    between atoms: _629  and  _631
REMARK  253  A    between atoms: _631  and  _632
REMARK  254  A    between atoms: _635  and  _637
REMARK  255  A    between atoms: _637  and  _638
REMARK  256  A    between atoms: _637  and  _640
REMARK  257  A    between atoms: _640  and  _641
REMARK  258  A    between atoms: _644  and  _646
REMARK  259  A    between atoms: _646  and  _647
REMARK  260  A    between atoms: _646  and  _649
REMARK  261  A    between atoms: _649  and  _650
REMARK  262  A    between atoms: _652  and  _654
REMARK  263  A    between atoms: _654  and  _655
REMARK  264  A    between atoms: _654  and  _657
REMARK  265  A    between atoms: _657  and  _658
REMARK  266  A    between atoms: _658  and  _659
REMARK  267  A    between atoms: _664  and  _666
REMARK  268  A    between atoms: _666  and  _667
REMARK  269  A    between atoms: _666  and  _669
REMARK  270  A    between atoms: _669  and  _670
REMARK  271  A    between atoms: _672  and  _674
REMARK  272  A    between atoms: _674  and  _675
REMARK  273  A    between atoms: _674  and  _677
REMARK  274  A    between atoms: _677  and  _678
REMARK  275  A    between atoms: _680  and  _682
REMARK  276  A    between atoms: _682  and  _683
REMARK  277  A    between atoms: _682  and  _685
REMARK  278  A    between atoms: _685  and  _686
REMARK  279  A    between atoms: _689  and  _691
REMARK  280  A    between atoms: _691  and  _692
REMARK  281  A    between atoms: _691  and  _694
REMARK  282  A    between atoms: _697  and  _699
REMARK  283  A    between atoms: _699  and  _700
REMARK  284  A    between atoms: _702  and  _704
REMARK  285  A    between atoms: _704  and  _705
REMARK  286  A    between atoms: _708  and  _710
REMARK  287  A    between atoms: _710  and  _711
REMARK  288  A    between atoms: _710  and  _713
REMARK  289  A    between atoms: _716  and  _718
REMARK  290  A    between atoms: _718  and  _719
REMARK  291  A    between atoms: _718  and  _721
REMARK  292  A    between atoms: _721  and  _722
REMARK  293  A    between atoms: _722  and  _723
REMARK  294  A    between atoms: _725  and  _727
REMARK  295  A    between atoms: _727  and  _728
REMARK  296  A    between atoms: _727  and  _730
REMARK  297  A    between atoms: _730  and  _731
REMARK  298  A    between atoms: _731  and  _732
REMARK                            x       y       z     vdW  Elec       q    Type
REMARK                         _______ _______ _______ _____ _____    ______ ____
ROOT
ATOM      1  O   HOH     1     -12.582  -5.005  36.806  0.00  0.00    +0.000 OA
ENDROOT
TORSDOF 0
REMARK  Name = ../refined-set-2016/2vkm/2vkm_pocket.pdb
REMARK  298 active torsions:
REMARK  status: ('A' for Active; 'I' for Inactive)
REMARK    1  A    between atoms: _1  and  _3
REMARK    2  A    between atoms: _3  and  _4
REMARK    3  A    between atoms: _6  and  _8
REMARK    4  A    between atoms: _8  and  _9
REMARK    5  A    between atoms: _8  and  _11
REMARK    6  A    between atoms: _11  and  _12
REMARK    7  A    between atoms: _12  and  _13
REMARK    8  A    between atoms: _13  and  _14
REMARK    9  A    between atoms: _14  and  _15
REMARK   10  A    between atoms: _19  and  _21
REMARK   11  A    between atoms: _21  and  _22
REMARK   12  A    between atoms: _21  and  _24
REMARK   13  A    between atoms: _24  and  _25
REMARK   14  A    between atoms: _27  and  _29
REMARK   15  A    between atoms: _29  and  _30
REMARK   16  A    between atoms: _32  and  _34
REMARK   17  A    between atoms: _34  and  _35
REMARK   18  A    between atoms: _34  and  _37
REMARK   19  A    between atoms: _37  and  _38
REMARK   20  A    between atoms: _38  and  _39
REMARK   21  A    between atoms: _44  and  _46
REMARK   22  A    between atoms: _46  and  _47
REMARK   23  A    between atoms: _49  and  _51
REMARK   24  A    between atoms: _51  and  _52
REMARK   25  A    between atoms: _51  and  _54
REMARK   26  A    between atoms: _54  and  _55
REMARK   27  A    between atoms: _60  and  _61
REMARK   28  A    between atoms: _63  and  _65
REMARK   29  A    between atoms: _65  and  _66
REMARK   30  A    between atoms: _65  and  _68
REMARK   31  A    between atoms: _68  and  _69
REMARK   32  A    between atoms: _74  and  _75
REMARK   33  A    between atoms: _77  and  _79
REMARK   34  A    between atoms: _79  and  _80
REMARK   35  A    between atoms: _79  and  _82
REMARK   36  A    between atoms: _82  and  _83
REMARK   37  A    between atoms: _86  and  _88
REMARK   38  A    between atoms: _88  and  _89
REMARK   39  A    between atoms: _88  and  _91
REMARK   40  A    between atoms: _94  and  _96
REMARK   41  A    between atoms: _96  and  _97
REMARK   42  A    between atoms: _96  and  _99
REMARK   43  A    between atoms: _99  and  _100
REMARK   44  A    between atoms: _103  and  _105
REMARK   45  A    between atoms: _105  and  _106
REMARK   46  A    between atoms: _105  and  _108
REMARK   47  A    between atoms: _108  and  _109
REMARK   48  A    between atoms: _112  and  _114
REMARK   49  A    between atoms: _114  and  _115
REMARK   50  A    between atoms: _117  and  _119
REMARK   51  A    between atoms: _119  and  _120
REMARK   52  A    between atoms: _119  and  _122
REMARK   53  A    between atoms: _122  and  _123
REMARK   54  A    between atoms: _125  and  _127
REMARK   55  A    between atoms: _127  and  _128
REMARK   56  A    between atoms: _127  and  _130
REMARK   57  A    between atoms: _130  and  _131
REMARK   58  A    between atoms: _133  and  _135
REMARK   59  A    between atoms: _135  and  _136
REMARK   60  A    between atoms: _135  and  _138
REMARK   61  A    between atoms: _138  and  _139
REMARK   62  A    between atoms: _144  and  _146
REMARK   63  A    between atoms: _146  and  _147
REMARK   64  A    between atoms: _146  and  _149
REMARK   65  A    between atoms: _153  and  _154
REMARK   66  A    between atoms: _159  and  _161
REMARK   67  A    between atoms: _161  and  _162
REMARK   68  A    between atoms: _161  and  _164
REMARK   69  A    between atoms: _164  and  _165
REMARK   70  A    between atoms: _170  and  _171
REMARK   71  A    between atoms: _173  and  _175
REMARK   72  A    between atoms: _175  and  _176
REMARK   73  A    between atoms: _175  and  _178
REMARK   74  A    between atoms: _178  and  _179
REMARK   75  A    between atoms: _182  and  _184
REMARK   76  A    between atoms: _184  and  _185
REMARK   77  A    between atoms: _184  and  _187
REMARK   78  A    between atoms: _187  and  _188
REMARK   79  A    between atoms: _188  and  _189
REMARK   80  A    between atoms: _194  and  _196
REMARK   81  A    between atoms: _196  and  _197
REMARK   82  A    between atoms: _199  and  _201
REMARK   83  A    between atoms: _201  and  _202
REMARK   84  A    between atoms: _201  and  _204
REMARK   85  A    between atoms: _204  and  _205
REMARK   86  A    between atoms: _205  and  _206
REMARK   87  A    between atoms: _206  and  _207
REMARK   88  A    between atoms: _207  and  _208
REMARK   89  A    between atoms: _212  and  _214
REMARK   90  A    between atoms: _214  and  _215
REMARK   91  A    between atoms: _214  and  _217
REMARK   92  A    between atoms: _217  and  _218
REMARK   93  A    between atoms: _228  and  _230
REMARK   94  A    between atoms: _230  and  _231
REMARK   95  A    between atoms: _230  and  _233
REMARK   96  A    between atoms: _233  and  _234
REMARK   97  A    between atoms: _237  and  _239
REMARK   98  A    between atoms: _239  and  _240
REMARK   99  A    between atoms: _239  and  _242
REMARK  100  A    between atoms: _242  and  _243
REMARK  101  A    between atoms: _243  and  _244
REMARK  102  A    between atoms: _244  and  _245
REMARK  103  A    between atoms: _245  and  _246
REMARK  104  A    between atoms: _250  and  _252
REMARK  105  A    between atoms: _252  and  _253
REMARK  106  A    between atoms: _252  and  _255
REMARK  107  A    between atoms: _255  and  _256
REMARK  108  A    between atoms: _262  and  _264
REMARK  109  A    between atoms: _264  and  _265
REMARK  110  A    between atoms: _264  and  _267
REMARK  111  A    between atoms: _267  and  _268
REMARK  112  A    between atoms: _274  and  _276
REMARK  113  A    between atoms: _276  and  _277
REMARK  114  A    between atoms: _276  and  _279
REMARK  115  A    between atoms: _279  and  _280
REMARK  116  A    between atoms: _283  and  _285
REMARK  117  A    between atoms: _285  and  _286
REMARK  118  A    between atoms: _285  and  _288
REMARK  119  A    between atoms: _288  and  _289
REMARK  120  A    between atoms: _291  and  _293
REMARK  121  A    between atoms: _293  and  _294
REMARK  122  A    between atoms: _293  and  _296
REMARK  123  A    between atoms: _296  and  _297
REMARK  124  A    between atoms: _307  and  _309
REMARK  125  A    between atoms: _309  and  _310
REMARK  126  A    between atoms: _312  and  _314
REMARK  127  A    between atoms: _314  and  _315
REMARK  128  A    between atoms: _314  and  _317
REMARK  129  A    between atoms: _317  and  _318
REMARK  130  A    between atoms: _321  and  _323
REMARK  131  A    between atoms: _323  and  _324
REMARK  132  A    between atoms: _323  and  _326
REMARK  133  A    between atoms: _326  and  _327
REMARK  134  A    between atoms: _330  and  _332
REMARK  135  A    between atoms: _332  and  _333
REMARK  136  A    between atoms: _335  and  _337
REMARK  137  A    between atoms: _337  and  _338
REMARK  138  A    between atoms: _337  and  _340
REMARK  139  A    between atoms: _340  and  _341
REMARK  140  A    between atoms: _344  and  _346
REMARK  141  A    between atoms: _346  and  _347
REMARK  142  A    between atoms: _350  and  _352
REMARK  143  A    between atoms: _352  and  _353
REMARK  144  A    between atoms: _352  and  _355
REMARK  145  A    between atoms: _355  and  _356
REMARK  146  A    between atoms: _361  and  _362
REMARK  147  A    between atoms: _364  and  _366
REMARK  148  A    between atoms: _366  and  _367
REMARK  149  A    between atoms: _370  and  _372
REMARK  150  A    between atoms: _372  and  _373
REMARK  151  A    between atoms: _372  and  _375
REMARK  152  A    between atoms: _375  and  _376
REMARK  153  A    between atoms: _376  and  _377
REMARK  154  A    between atoms: _380  and  _382
REMARK  155  A    between atoms: _382  and  _383
REMARK  156  A    between atoms: _382  and  _385
REMARK  157  A    between atoms: _385  and  _386
REMARK  158  A    between atoms: _389  and  _391
REMARK  159  A    between atoms: _391  and  _392
REMARK  160  A    between atoms: _395  and  _397
REMARK  161  A    between atoms: _397  and  _398
REMARK  162  A    between atoms: _397  and  _400
REMARK  163  A    between atoms: _400  and  _401
REMARK  164  A    between atoms: _401  and  _402
REMARK  165  A    between atoms: _402  and  _403
REMARK  166  A    between atoms: _412  and  _414
REMARK  167  A    between atoms: _414  and  _415
REMARK  168  A    between atoms: _414  and  _417
REMARK  169  A    between atoms: _417  and  _418
REMARK  170  A    between atoms: _421  and  _423
REMARK  171  A    between atoms: _423  and  _424
REMARK  172  A    between atoms: _426  and  _428
REMARK  173  A    between atoms: _428  and  _429
REMARK  174  A    between atoms: _428  and  _431
REMARK  175  A    between atoms: _431  and  _432
REMARK  176  A    between atoms: _442  and  _444
REMARK  177  A    between atoms: _444  and  _445
REMARK  178  A    between atoms: _444  and  _447
REMARK  179  A    between atoms: _447  and  _448
REMARK  180  A    between atoms: _453  and  _454
REMARK  181  A    between atoms: _456  and  _458
REMARK  182  A    between atoms: _458  and  _459
REMARK  183  A    between atoms: _458  and  _461
REMARK  184  A    between atoms: _461  and  _462
REMARK  185  A    between atoms: _467  and  _468
REMARK  186  A    between atoms: _470  and  _472
REMARK  187  A    between atoms: _472  and  _473
REMARK  188  A    between atoms: _472  and  _475
REMARK  189  A    between atoms: _475  and  _476
REMARK  190  A    between atoms: _476  and  _477
REMARK  191  A    between atoms: _477  and  _478
REMARK  192  A    between atoms: _478  and  _479
REMARK  193  A    between atoms: _483  and  _485
REMARK  194  A    between atoms: _485  and  _486
REMARK  195  A    between atoms: _485  and  _488
REMARK  196  A    between atoms: _488  and  _489
REMARK  197  A    between atoms: _492  and  _494
REMARK  198  A    between atoms: _494  and  _495
REMARK  199  A    between atoms: _494  and  _497
REMARK  200  A    between atoms: _500  and  _502
REMARK  201  A    between atoms: _502  and  _503
REMARK  202  A    between atoms: _502  and  _505
REMARK  203  A    between atoms: _505  and  _506
REMARK  204  A    between atoms: _509  and  _511
REMARK  205  A    between atoms: _511  and  _512
REMARK  206  A    between atoms: _511  and  _514
REMARK  207  A    between atoms: _514  and  _515
REMARK  208  A    between atoms: _517  and  _519
REMARK  209  A    between atoms: _519  and  _520
REMARK  210  A    between atoms: _522  and  _524
REMARK  211  A    between atoms: _524  and  _525
REMARK  212  A    between atoms: _524  and  _527
REMARK  213  A    between atoms: _527  and  _528
REMARK  214  A    between atoms: _531  and  _533
REMARK  215  A    between atoms: _533  and  _534
REMARK  216  A    between atoms: _533  and  _536
REMARK  217  A    between atoms: _536  and  _537
REMARK  218  A    between atoms: _540  and  _542
REMARK  219  A    between atoms: _542  and  _543
REMARK  220  A    between atoms: _542  and  _545
REMARK  221  A    between atoms: _545  and  _546
REMARK  222  A    between atoms: _551  and  _553
REMARK  223  A    between atoms: _553  and  _554
REMARK  224  A    between atoms: _553  and  _556
REMARK  225  A    between atoms: _556  and  _557
REMARK  226  A    between atoms: _560  and  _562
REMARK  227  A    between atoms: _562  and  _563
REMARK  228  A    between atoms: _562  and  _565
REMARK  229  A    between atoms: _565  and  _566
REMARK  230  A    between atoms: _566  and  _567
REMARK  231  A    between atoms: _567  and  _568
REMARK  232  A    between atoms: _577  and  _579
REMARK  233  A    between atoms: _579  and  _580
REMARK  234  A    between atoms: _579  and  _582
REMARK  235  A    between atoms: _582  and  _583
REMARK  236  A    between atoms: _586  and  _588
REMARK  237  A    between atoms: _588  and  _589
REMARK  238  A    between atoms: _588  and  _591
REMARK  239  A    between atoms: _591  and  _592
REMARK  240  A    between atoms: _595  and  _597
REMARK  241  A    between atoms: _597  and  _598
REMARK  242  A    between atoms: _600  and  _602
REMARK  243  A    between atoms: _602  and  _603
REMARK  244  A    between atoms: _602  and  _605
REMARK  245  A    between atoms: _605  and  _606
REMARK  246  A    between atoms: _606  and  _607
REMARK  247  A    between atoms: _607  and  _608
REMARK  248  A    between atoms: _617  and  _619
REMARK  249  A    between atoms: _619  and  _620
REMARK  250  A    between atoms: _619  and  _622
REMARK  251  A    between atoms: _622  and  _623
REMARK  252  A    between atoms: _629  and  _631
REMARK  253  A    between atoms: _631  and  _632
REMARK  254  A    between atoms: _635  and  _637
REMARK  255  A    between atoms: _637  and  _638
REMARK  256  A    between atoms: _637  and  _640
REMARK  257  A    between atoms: _640  and  _641
REMARK  258  A    between atoms: _644  and  _646
REMARK  259  A    between atoms: _646  and  _647
REMARK  260  A    between atoms: _646  and  _649
REMARK  261  A    between atoms: _649  and  _650
REMARK  262  A    between atoms: _652  and  _654
REMARK  263  A    between atoms: _654  and  _655
REMARK  264  A    between atoms: _654  and  _657
REMARK  265  A    between atoms: _657  and  _658
REMARK  266  A    between atoms: _658  and  _659
REMARK  267  A    between atoms: _664  and  _666
REMARK  268  A    between atoms: _666  and  _667
REMARK  269  A    between atoms: _666  and  _669
REMARK  270  A    between atoms: _669  and  _670
REMARK  271  A    between atoms: _672  and  _674
REMARK  272  A    between atoms: _674  and  _675
REMARK  273  A    between atoms: _674  and  _677
REMARK  274  A    between atoms: _677  and  _678
REMARK  275  A    between atoms: _680  and  _682
REMARK  276  A    between atoms: _682  and  _683
REMARK  277  A    between atoms: _682  and  _685
REMARK  278  A    between atoms: _685  and  _686
REMARK  279  A    between atoms: _689  and  _691
REMARK  280  A    between atoms: _691  and  _692
REMARK  281  A    between atoms: _691  and  _694
REMARK  282  A    between atoms: _697  and  _699
REMARK  283  A    between atoms: _699  and  _700
REMARK  284  A    between atoms: _702  and  _704
REMARK  285  A    between atoms: _704  and  _705
REMARK  286  A    between atoms: _708  and  _710
REMARK  287  A    between atoms: _710  and  _711
REMARK  288  A    between atoms: _710  and  _713
REMARK  289  A    between atoms: _716  and  _718
REMARK  290  A    between atoms: _718  and  _719
REMARK  291  A    between atoms: _718  and  _721
REMARK  292  A    between atoms: _721  and  _722
REMARK  293  A    between atoms: _722  and  _723
REMARK  294  A    between atoms: _725  and  _727
REMARK  295  A    between atoms: _727  and  _728
REMARK  296  A    between atoms: _727  and  _730
REMARK  297  A    between atoms: _730  and  _731
REMARK  298  A    between atoms: _731  and  _732
REMARK                            x       y       z     vdW  Elec       q    Type
REMARK                         _______ _______ _______ _____ _____    ______ ____
ROOT
ATOM      1  O   HOH     1     -16.853   2.629  33.190  0.00  0.00    +0.000 OA
ENDROOT
TORSDOF 0
REMARK  Name = ../refined-set-2016/2vkm/2vkm_pocket.pdb
REMARK  298 active torsions:
REMARK  status: ('A' for Active; 'I' for Inactive)
REMARK    1  A    between atoms: _1  and  _3
REMARK    2  A    between atoms: _3  and  _4
REMARK    3  A    between atoms: _6  and  _8
REMARK    4  A    between atoms: _8  and  _9
REMARK    5  A    between atoms: _8  and  _11
REMARK    6  A    between atoms: _11  and  _12
REMARK    7  A    between atoms: _12  and  _13
REMARK    8  A    between atoms: _13  and  _14
REMARK    9  A    between atoms: _14  and  _15
REMARK   10  A    between atoms: _19  and  _21
REMARK   11  A    between atoms: _21  and  _22
REMARK   12  A    between atoms: _21  and  _24
REMARK   13  A    between atoms: _24  and  _25
REMARK   14  A    between atoms: _27  and  _29
REMARK   15  A    between atoms: _29  and  _30
REMARK   16  A    between atoms: _32  and  _34
REMARK   17  A    between atoms: _34  and  _35
REMARK   18  A    between atoms: _34  and  _37
REMARK   19  A    between atoms: _37  and  _38
REMARK   20  A    between atoms: _38  and  _39
REMARK   21  A    between atoms: _44  and  _46
REMARK   22  A    between atoms: _46  and  _47
REMARK   23  A    between atoms: _49  and  _51
REMARK   24  A    between atoms: _51  and  _52
REMARK   25  A    between atoms: _51  and  _54
REMARK   26  A    between atoms: _54  and  _55
REMARK   27  A    between atoms: _60  and  _61
REMARK   28  A    between atoms: _63  and  _65
REMARK   29  A    between atoms: _65  and  _66
REMARK   30  A    between atoms: _65  and  _68
REMARK   31  A    between atoms: _68  and  _69
REMARK   32  A    between atoms: _74  and  _75
REMARK   33  A    between atoms: _77  and  _79
REMARK   34  A    between atoms: _79  and  _80
REMARK   35  A    between atoms: _79  and  _82
REMARK   36  A    between atoms: _82  and  _83
REMARK   37  A    between atoms: _86  and  _88
REMARK   38  A    between atoms: _88  and  _89
REMARK   39  A    between atoms: _88  and  _91
REMARK   40  A    between atoms: _94  and  _96
REMARK   41  A    between atoms: _96  and  _97
REMARK   42  A    between atoms: _96  and  _99
REMARK   43  A    between atoms: _99  and  _100
REMARK   44  A    between atoms: _103  and  _105
REMARK   45  A    between atoms: _105  and  _106
REMARK   46  A    between atoms: _105  and  _108
REMARK   47  A    between atoms: _108  and  _109
REMARK   48  A    between atoms: _112  and  _114
REMARK   49  A    between atoms: _114  and  _115
REMARK   50  A    between atoms: _117  and  _119
REMARK   51  A    between atoms: _119  and  _120
REMARK   52  A    between atoms: _119  and  _122
REMARK   53  A    between atoms: _122  and  _123
REMARK   54  A    between atoms: _125  and  _127
REMARK   55  A    between atoms: _127  and  _128
REMARK   56  A    between atoms: _127  and  _130
REMARK   57  A    between atoms: _130  and  _131
REMARK   58  A    between atoms: _133  and  _135
REMARK   59  A    between atoms: _135  and  _136
REMARK   60  A    between atoms: _135  and  _138
REMARK   61  A    between atoms: _138  and  _139
REMARK   62  A    between atoms: _144  and  _146
REMARK   63  A    between atoms: _146  and  _147
REMARK   64  A    between atoms: _146  and  _149
REMARK   65  A    between atoms: _153  and  _154
REMARK   66  A    between atoms: _159  and  _161
REMARK   67  A    between atoms: _161  and  _162
REMARK   68  A    between atoms: _161  and  _164
REMARK   69  A    between atoms: _164  and  _165
REMARK   70  A    between atoms: _170  and  _171
REMARK   71  A    between atoms: _173  and  _175
REMARK   72  A    between atoms: _175  and  _176
REMARK   73  A    between atoms: _175  and  _178
REMARK   74  A    between atoms: _178  and  _179
REMARK   75  A    between atoms: _182  and  _184
REMARK   76  A    between atoms: _184  and  _185
REMARK   77  A    between atoms: _184  and  _187
REMARK   78  A    between atoms: _187  and  _188
REMARK   79  A    between atoms: _188  and  _189
REMARK   80  A    between atoms: _194  and  _196
REMARK   81  A    between atoms: _196  and  _197
REMARK   82  A    between atoms: _199  and  _201
REMARK   83  A    between atoms: _201  and  _202
REMARK   84  A    between atoms: _201  and  _204
REMARK   85  A    between atoms: _204  and  _205
REMARK   86  A    between atoms: _205  and  _206
REMARK   87  A    between atoms: _206  and  _207
REMARK   88  A    between atoms: _207  and  _208
REMARK   89  A    between atoms: _212  and  _214
REMARK   90  A    between atoms: _214  and  _215
REMARK   91  A    between atoms: _214  and  _217
REMARK   92  A    between atoms: _217  and  _218
REMARK   93  A    between atoms: _228  and  _230
REMARK   94  A    between atoms: _230  and  _231
REMARK   95  A    between atoms: _230  and  _233
REMARK   96  A    between atoms: _233  and  _234
REMARK   97  A    between atoms: _237  and  _239
REMARK   98  A    between atoms: _239  and  _240
REMARK   99  A    between atoms: _239  and  _242
REMARK  100  A    between atoms: _242  and  _243
REMARK  101  A    between atoms: _243  and  _244
REMARK  102  A    between atoms: _244  and  _245
REMARK  103  A    between atoms: _245  and  _246
REMARK  104  A    between atoms: _250  and  _252
REMARK  105  A    between atoms: _252  and  _253
REMARK  106  A    between atoms: _252  and  _255
REMARK  107  A    between atoms: _255  and  _256
REMARK  108  A    between atoms: _262  and  _264
REMARK  109  A    between atoms: _264  and  _265
REMARK  110  A    between atoms: _264  and  _267
REMARK  111  A    between atoms: _267  and  _268
REMARK  112  A    between atoms: _274  and  _276
REMARK  113  A    between atoms: _276  and  _277
REMARK  114  A    between atoms: _276  and  _279
REMARK  115  A    between atoms: _279  and  _280
REMARK  116  A    between atoms: _283  and  _285
REMARK  117  A    between atoms: _285  and  _286
REMARK  118  A    between atoms: _285  and  _288
REMARK  119  A    between atoms: _288  and  _289
REMARK  120  A    between atoms: _291  and  _293
REMARK  121  A    between atoms: _293  and  _294
REMARK  122  A    between atoms: _293  and  _296
REMARK  123  A    between atoms: _296  and  _297
REMARK  124  A    between atoms: _307  and  _309
REMARK  125  A    between atoms: _309  and  _310
REMARK  126  A    between atoms: _312  and  _314
REMARK  127  A    between atoms: _314  and  _315
REMARK  128  A    between atoms: _314  and  _317
REMARK  129  A    between atoms: _317  and  _318
REMARK  130  A    between atoms: _321  and  _323
REMARK  131  A    between atoms: _323  and  _324
REMARK  132  A    between atoms: _323  and  _326
REMARK  133  A    between atoms: _326  and  _327
REMARK  134  A    between atoms: _330  and  _332
REMARK  135  A    between atoms: _332  and  _333
REMARK  136  A    between atoms: _335  and  _337
REMARK  137  A    between atoms: _337  and  _338
REMARK  138  A    between atoms: _337  and  _340
REMARK  139  A    between atoms: _340  and  _341
REMARK  140  A    between atoms: _344  and  _346
REMARK  141  A    between atoms: _346  and  _347
REMARK  142  A    between atoms: _350  and  _352
REMARK  143  A    between atoms: _352  and  _353
REMARK  144  A    between atoms: _352  and  _355
REMARK  145  A    between atoms: _355  and  _356
REMARK  146  A    between atoms: _361  and  _362
REMARK  147  A    between atoms: _364  and  _366
REMARK  148  A    between atoms: _366  and  _367
REMARK  149  A    between atoms: _370  and  _372
REMARK  150  A    between atoms: _372  and  _373
REMARK  151  A    between atoms: _372  and  _375
REMARK  152  A    between atoms: _375  and  _376
REMARK  153  A    between atoms: _376  and  _377
REMARK  154  A    between atoms: _380  and  _382
REMARK  155  A    between atoms: _382  and  _383
REMARK  156  A    between atoms: _382  and  _385
REMARK  157  A    between atoms: _385  and  _386
REMARK  158  A    between atoms: _389  and  _391
REMARK  159  A    between atoms: _391  and  _392
REMARK  160  A    between atoms: _395  and  _397
REMARK  161  A    between atoms: _397  and  _398
REMARK  162  A    between atoms: _397  and  _400
REMARK  163  A    between atoms: _400  and  _401
REMARK  164  A    between atoms: _401  and  _402
REMARK  165  A    between atoms: _402  and  _403
REMARK  166  A    between atoms: _412  and  _414
REMARK  167  A    between atoms: _414  and  _415
REMARK  168  A    between atoms: _414  and  _417
REMARK  169  A    between atoms: _417  and  _418
REMARK  170  A    between atoms: _421  and  _423
REMARK  171  A    between atoms: _423  and  _424
REMARK  172  A    between atoms: _426  and  _428
REMARK  173  A    between atoms: _428  and  _429
REMARK  174  A    between atoms: _428  and  _431
REMARK  175  A    between atoms: _431  and  _432
REMARK  176  A    between atoms: _442  and  _444
REMARK  177  A    between atoms: _444  and  _445
REMARK  178  A    between atoms: _444  and  _447
REMARK  179  A    between atoms: _447  and  _448
REMARK  180  A    between atoms: _453  and  _454
REMARK  181  A    between atoms: _456  and  _458
REMARK  182  A    between atoms: _458  and  _459
REMARK  183  A    between atoms: _458  and  _461
REMARK  184  A    between atoms: _461  and  _462
REMARK  185  A    between atoms: _467  and  _468
REMARK  186  A    between atoms: _470  and  _472
REMARK  187  A    between atoms: _472  and  _473
REMARK  188  A    between atoms: _472  and  _475
REMARK  189  A    between atoms: _475  and  _476
REMARK  190  A    between atoms: _476  and  _477
REMARK  191  A    between atoms: _477  and  _478
REMARK  192  A    between atoms: _478  and  _479
REMARK  193  A    between atoms: _483  and  _485
REMARK  194  A    between atoms: _485  and  _486
REMARK  195  A    between atoms: _485  and  _488
REMARK  196  A    between atoms: _488  and  _489
REMARK  197  A    between atoms: _492  and  _494
REMARK  198  A    between atoms: _494  and  _495
REMARK  199  A    between atoms: _494  and  _497
REMARK  200  A    between atoms: _500  and  _502
REMARK  201  A    between atoms: _502  and  _503
REMARK  202  A    between atoms: _502  and  _505
REMARK  203  A    between atoms: _505  and  _506
REMARK  204  A    between atoms: _509  and  _511
REMARK  205  A    between atoms: _511  and  _512
REMARK  206  A    between atoms: _511  and  _514
REMARK  207  A    between atoms: _514  and  _515
REMARK  208  A    between atoms: _517  and  _519
REMARK  209  A    between atoms: _519  and  _520
REMARK  210  A    between atoms: _522  and  _524
REMARK  211  A    between atoms: _524  and  _525
REMARK  212  A    between atoms: _524  and  _527
REMARK  213  A    between atoms: _527  and  _528
REMARK  214  A    between atoms: _531  and  _533
REMARK  215  A    between atoms: _533  and  _534
REMARK  216  A    between atoms: _533  and  _536
REMARK  217  A    between atoms: _536  and  _537
REMARK  218  A    between atoms: _540  and  _542
REMARK  219  A    between atoms: _542  and  _543
REMARK  220  A    between atoms: _542  and  _545
REMARK  221  A    between atoms: _545  and  _546
REMARK  222  A    between atoms: _551  and  _553
REMARK  223  A    between atoms: _553  and  _554
REMARK  224  A    between atoms: _553  and  _556
REMARK  225  A    between atoms: _556  and  _557
REMARK  226  A    between atoms: _560  and  _562
REMARK  227  A    between atoms: _562  and  _563
REMARK  228  A    between atoms: _562  and  _565
REMARK  229  A    between atoms: _565  and  _566
REMARK  230  A    between atoms: _566  and  _567
REMARK  231  A    between atoms: _567  and  _568
REMARK  232  A    between atoms: _577  and  _579
REMARK  233  A    between atoms: _579  and  _580
REMARK  234  A    between atoms: _579  and  _582
REMARK  235  A    between atoms: _582  and  _583
REMARK  236  A    between atoms: _586  and  _588
REMARK  237  A    between atoms: _588  and  _589
REMARK  238  A    between atoms: _588  and  _591
REMARK  239  A    between atoms: _591  and  _592
REMARK  240  A    between atoms: _595  and  _597
REMARK  241  A    between atoms: _597  and  _598
REMARK  242  A    between atoms: _600  and  _602
REMARK  243  A    between atoms: _602  and  _603
REMARK  244  A    between atoms: _602  and  _605
REMARK  245  A    between atoms: _605  and  _606
REMARK  246  A    between atoms: _606  and  _607
REMARK  247  A    between atoms: _607  and  _608
REMARK  248  A    between atoms: _617  and  _619
REMARK  249  A    between atoms: _619  and  _620
REMARK  250  A    between atoms: _619  and  _622
REMARK  251  A    between atoms: _622  and  _623
REMARK  252  A    between atoms: _629  and  _631
REMARK  253  A    between atoms: _631  and  _632
REMARK  254  A    between atoms: _635  and  _637
REMARK  255  A    between atoms: _637  and  _638
REMARK  256  A    between atoms: _637  and  _640
REMARK  257  A    between atoms: _640  and  _641
REMARK  258  A    between atoms: _644  and  _646
REMARK  259  A    between atoms: _646  and  _647
REMARK  260  A    between atoms: _646  and  _649
REMARK  261  A    between atoms: _649  and  _650
REMARK  262  A    between atoms: _652  and  _654
REMARK  263  A    between atoms: _654  and  _655
REMARK  264  A    between atoms: _654  and  _657
REMARK  265  A    between atoms: _657  and  _658
REMARK  266  A    between atoms: _658  and  _659
REMARK  267  A    between atoms: _664  and  _666
REMARK  268  A    between atoms: _666  and  _667
REMARK  269  A    between atoms: _666  and  _669
REMARK  270  A    between atoms: _669  and  _670
REMARK  271  A    between atoms: _672  and  _674
REMARK  272  A    between atoms: _674  and  _675
REMARK  273  A    between atoms: _674  and  _677
REMARK  274  A    between atoms: _677  and  _678
REMARK  275  A    between atoms: _680  and  _682
REMARK  276  A    between atoms: _682  and  _683
REMARK  277  A    between atoms: _682  and  _685
REMARK  278  A    between atoms: _685  and  _686
REMARK  279  A    between atoms: _689  and  _691
REMARK  280  A    between atoms: _691  and  _692
REMARK  281  A    between atoms: _691  and  _694
REMARK  282  A    between atoms: _697  and  _699
REMARK  283  A    between atoms: _699  and  _700
REMARK  284  A    between atoms: _702  and  _704
REMARK  285  A    between atoms: _704  and  _705
REMARK  286  A    between atoms: _708  and  _710
REMARK  287  A    between atoms: _710  and  _711
REMARK  288  A    between atoms: _710  and  _713
REMARK  289  A    between atoms: _716  and  _718
REMARK  290  A    between atoms: _718  and  _719
REMARK  291  A    between atoms: _718  and  _721
REMARK  292  A    between atoms: _721  and  _722
REMARK  293  A    between atoms: _722  and  _723
REMARK  294  A    between atoms: _725  and  _727
REMARK  295  A    between atoms: _727  and  _728
REMARK  296  A    between atoms: _727  and  _730
REMARK  297  A    between atoms: _730  and  _731
REMARK  298  A    between atoms: _731  and  _732
REMARK                            x       y       z     vdW  Elec       q    Type
REMARK                         _______ _______ _______ _____ _____    ______ ____
ROOT
ATOM      1  O   HOH     1      -8.924   0.052  26.335  0.00  0.00    +0.000 OA
ENDROOT
TORSDOF 0
REMARK  Name = ../refined-set-2016/2vkm/2vkm_pocket.pdb
REMARK  298 active torsions:
REMARK  status: ('A' for Active; 'I' for Inactive)
REMARK    1  A    between atoms: _1  and  _3
REMARK    2  A    between atoms: _3  and  _4
REMARK    3  A    between atoms: _6  and  _8
REMARK    4  A    between atoms: _8  and  _9
REMARK    5  A    between atoms: _8  and  _11
REMARK    6  A    between atoms: _11  and  _12
REMARK    7  A    between atoms: _12  and  _13
REMARK    8  A    between atoms: _13  and  _14
REMARK    9  A    between atoms: _14  and  _15
REMARK   10  A    between atoms: _19  and  _21
REMARK   11  A    between atoms: _21  and  _22
REMARK   12  A    between atoms: _21  and  _24
REMARK   13  A    between atoms: _24  and  _25
REMARK   14  A    between atoms: _27  and  _29
REMARK   15  A    between atoms: _29  and  _30
REMARK   16  A    between atoms: _32  and  _34
REMARK   17  A    between atoms: _34  and  _35
REMARK   18  A    between atoms: _34  and  _37
REMARK   19  A    between atoms: _37  and  _38
REMARK   20  A    between atoms: _38  and  _39
REMARK   21  A    between atoms: _44  and  _46
REMARK   22  A    between atoms: _46  and  _47
REMARK   23  A    between atoms: _49  and  _51
REMARK   24  A    between atoms: _51  and  _52
REMARK   25  A    between atoms: _51  and  _54
REMARK   26  A    between atoms: _54  and  _55
REMARK   27  A    between atoms: _60  and  _61
REMARK   28  A    between atoms: _63  and  _65
REMARK   29  A    between atoms: _65  and  _66
REMARK   30  A    between atoms: _65  and  _68
REMARK   31  A    between atoms: _68  and  _69
REMARK   32  A    between atoms: _74  and  _75
REMARK   33  A    between atoms: _77  and  _79
REMARK   34  A    between atoms: _79  and  _80
REMARK   35  A    between atoms: _79  and  _82
REMARK   36  A    between atoms: _82  and  _83
REMARK   37  A    between atoms: _86  and  _88
REMARK   38  A    between atoms: _88  and  _89
REMARK   39  A    between atoms: _88  and  _91
REMARK   40  A    between atoms: _94  and  _96
REMARK   41  A    between atoms: _96  and  _97
REMARK   42  A    between atoms: _96  and  _99
REMARK   43  A    between atoms: _99  and  _100
REMARK   44  A    between atoms: _103  and  _105
REMARK   45  A    between atoms: _105  and  _106
REMARK   46  A    between atoms: _105  and  _108
REMARK   47  A    between atoms: _108  and  _109
REMARK   48  A    between atoms: _112  and  _114
REMARK   49  A    between atoms: _114  and  _115
REMARK   50  A    between atoms: _117  and  _119
REMARK   51  A    between atoms: _119  and  _120
REMARK   52  A    between atoms: _119  and  _122
REMARK   53  A    between atoms: _122  and  _123
REMARK   54  A    between atoms: _125  and  _127
REMARK   55  A    between atoms: _127  and  _128
REMARK   56  A    between atoms: _127  and  _130
REMARK   57  A    between atoms: _130  and  _131
REMARK   58  A    between atoms: _133  and  _135
REMARK   59  A    between atoms: _135  and  _136
REMARK   60  A    between atoms: _135  and  _138
REMARK   61  A    between atoms: _138  and  _139
REMARK   62  A    between atoms: _144  and  _146
REMARK   63  A    between atoms: _146  and  _147
REMARK   64  A    between atoms: _146  and  _149
REMARK   65  A    between atoms: _153  and  _154
REMARK   66  A    between atoms: _159  and  _161
REMARK   67  A    between atoms: _161  and  _162
REMARK   68  A    between atoms: _161  and  _164
REMARK   69  A    between atoms: _164  and  _165
REMARK   70  A    between atoms: _170  and  _171
REMARK   71  A    between atoms: _173  and  _175
REMARK   72  A    between atoms: _175  and  _176
REMARK   73  A    between atoms: _175  and  _178
REMARK   74  A    between atoms: _178  and  _179
REMARK   75  A    between atoms: _182  and  _184
REMARK   76  A    between atoms: _184  and  _185
REMARK   77  A    between atoms: _184  and  _187
REMARK   78  A    between atoms: _187  and  _188
REMARK   79  A    between atoms: _188  and  _189
REMARK   80  A    between atoms: _194  and  _196
REMARK   81  A    between atoms: _196  and  _197
REMARK   82  A    between atoms: _199  and  _201
REMARK   83  A    between atoms: _201  and  _202
REMARK   84  A    between atoms: _201  and  _204
REMARK   85  A    between atoms: _204  and  _205
REMARK   86  A    between atoms: _205  and  _206
REMARK   87  A    between atoms: _206  and  _207
REMARK   88  A    between atoms: _207  and  _208
REMARK   89  A    between atoms: _212  and  _214
REMARK   90  A    between atoms: _214  and  _215
REMARK   91  A    between atoms: _214  and  _217
REMARK   92  A    between atoms: _217  and  _218
REMARK   93  A    between atoms: _228  and  _230
REMARK   94  A    between atoms: _230  and  _231
REMARK   95  A    between atoms: _230  and  _233
REMARK   96  A    between atoms: _233  and  _234
REMARK   97  A    between atoms: _237  and  _239
REMARK   98  A    between atoms: _239  and  _240
REMARK   99  A    between atoms: _239  and  _242
REMARK  100  A    between atoms: _242  and  _243
REMARK  101  A    between atoms: _243  and  _244
REMARK  102  A    between atoms: _244  and  _245
REMARK  103  A    between atoms: _245  and  _246
REMARK  104  A    between atoms: _250  and  _252
REMARK  105  A    between atoms: _252  and  _253
REMARK  106  A    between atoms: _252  and  _255
REMARK  107  A    between atoms: _255  and  _256
REMARK  108  A    between atoms: _262  and  _264
REMARK  109  A    between atoms: _264  and  _265
REMARK  110  A    between atoms: _264  and  _267
REMARK  111  A    between atoms: _267  and  _268
REMARK  112  A    between atoms: _274  and  _276
REMARK  113  A    between atoms: _276  and  _277
REMARK  114  A    between atoms: _276  and  _279
REMARK  115  A    between atoms: _279  and  _280
REMARK  116  A    between atoms: _283  and  _285
REMARK  117  A    between atoms: _285  and  _286
REMARK  118  A    between atoms: _285  and  _288
REMARK  119  A    between atoms: _288  and  _289
REMARK  120  A    between atoms: _291  and  _293
REMARK  121  A    between atoms: _293  and  _294
REMARK  122  A    between atoms: _293  and  _296
REMARK  123  A    between atoms: _296  and  _297
REMARK  124  A    between atoms: _307  and  _309
REMARK  125  A    between atoms: _309  and  _310
REMARK  126  A    between atoms: _312  and  _314
REMARK  127  A    between atoms: _314  and  _315
REMARK  128  A    between atoms: _314  and  _317
REMARK  129  A    between atoms: _317  and  _318
REMARK  130  A    between atoms: _321  and  _323
REMARK  131  A    between atoms: _323  and  _324
REMARK  132  A    between atoms: _323  and  _326
REMARK  133  A    between atoms: _326  and  _327
REMARK  134  A    between atoms: _330  and  _332
REMARK  135  A    between atoms: _332  and  _333
REMARK  136  A    between atoms: _335  and  _337
REMARK  137  A    between atoms: _337  and  _338
REMARK  138  A    between atoms: _337  and  _340
REMARK  139  A    between atoms: _340  and  _341
REMARK  140  A    between atoms: _344  and  _346
REMARK  141  A    between atoms: _346  and  _347
REMARK  142  A    between atoms: _350  and  _352
REMARK  143  A    between atoms: _352  and  _353
REMARK  144  A    between atoms: _352  and  _355
REMARK  145  A    between atoms: _355  and  _356
REMARK  146  A    between atoms: _361  and  _362
REMARK  147  A    between atoms: _364  and  _366
REMARK  148  A    between atoms: _366  and  _367
REMARK  149  A    between atoms: _370  and  _372
REMARK  150  A    between atoms: _372  and  _373
REMARK  151  A    between atoms: _372  and  _375
REMARK  152  A    between atoms: _375  and  _376
REMARK  153  A    between atoms: _376  and  _377
REMARK  154  A    between atoms: _380  and  _382
REMARK  155  A    between atoms: _382  and  _383
REMARK  156  A    between atoms: _382  and  _385
REMARK  157  A    between atoms: _385  and  _386
REMARK  158  A    between atoms: _389  and  _391
REMARK  159  A    between atoms: _391  and  _392
REMARK  160  A    between atoms: _395  and  _397
REMARK  161  A    between atoms: _397  and  _398
REMARK  162  A    between atoms: _397  and  _400
REMARK  163  A    between atoms: _400  and  _401
REMARK  164  A    between atoms: _401  and  _402
REMARK  165  A    between atoms: _402  and  _403
REMARK  166  A    between atoms: _412  and  _414
REMARK  167  A    between atoms: _414  and  _415
REMARK  168  A    between atoms: _414  and  _417
REMARK  169  A    between atoms: _417  and  _418
REMARK  170  A    between atoms: _421  and  _423
REMARK  171  A    between atoms: _423  and  _424
REMARK  172  A    between atoms: _426  and  _428
REMARK  173  A    between atoms: _428  and  _429
REMARK  174  A    between atoms: _428  and  _431
REMARK  175  A    between atoms: _431  and  _432
REMARK  176  A    between atoms: _442  and  _444
REMARK  177  A    between atoms: _444  and  _445
REMARK  178  A    between atoms: _444  and  _447
REMARK  179  A    between atoms: _447  and  _448
REMARK  180  A    between atoms: _453  and  _454
REMARK  181  A    between atoms: _456  and  _458
REMARK  182  A    between atoms: _458  and  _459
REMARK  183  A    between atoms: _458  and  _461
REMARK  184  A    between atoms: _461  and  _462
REMARK  185  A    between atoms: _467  and  _468
REMARK  186  A    between atoms: _470  and  _472
REMARK  187  A    between atoms: _472  and  _473
REMARK  188  A    between atoms: _472  and  _475
REMARK  189  A    between atoms: _475  and  _476
REMARK  190  A    between atoms: _476  and  _477
REMARK  191  A    between atoms: _477  and  _478
REMARK  192  A    between atoms: _478  and  _479
REMARK  193  A    between atoms: _483  and  _485
REMARK  194  A    between atoms: _485  and  _486
REMARK  195  A    between atoms: _485  and  _488
REMARK  196  A    between atoms: _488  and  _489
REMARK  197  A    between atoms: _492  and  _494
REMARK  198  A    between atoms: _494  and  _495
REMARK  199  A    between atoms: _494  and  _497
REMARK  200  A    between atoms: _500  and  _502
REMARK  201  A    between atoms: _502  and  _503
REMARK  202  A    between atoms: _502  and  _505
REMARK  203  A    between atoms: _505  and  _506
REMARK  204  A    between atoms: _509  and  _511
REMARK  205  A    between atoms: _511  and  _512
REMARK  206  A    between atoms: _511  and  _514
REMARK  207  A    between atoms: _514  and  _515
REMARK  208  A    between atoms: _517  and  _519
REMARK  209  A    between atoms: _519  and  _520
REMARK  210  A    between atoms: _522  and  _524
REMARK  211  A    between atoms: _524  and  _525
REMARK  212  A    between atoms: _524  and  _527
REMARK  213  A    between atoms: _527  and  _528
REMARK  214  A    between atoms: _531  and  _533
REMARK  215  A    between atoms: _533  and  _534
REMARK  216  A    between atoms: _533  and  _536
REMARK  217  A    between atoms: _536  and  _537
REMARK  218  A    between atoms: _540  and  _542
REMARK  219  A    between atoms: _542  and  _543
REMARK  220  A    between atoms: _542  and  _545
REMARK  221  A    between atoms: _545  and  _546
REMARK  222  A    between atoms: _551  and  _553
REMARK  223  A    between atoms: _553  and  _554
REMARK  224  A    between atoms: _553  and  _556
REMARK  225  A    between atoms: _556  and  _557
REMARK  226  A    between atoms: _560  and  _562
REMARK  227  A    between atoms: _562  and  _563
REMARK  228  A    between atoms: _562  and  _565
REMARK  229  A    between atoms: _565  and  _566
REMARK  230  A    between atoms: _566  and  _567
REMARK  231  A    between atoms: _567  and  _568
REMARK  232  A    between atoms: _577  and  _579
REMARK  233  A    between atoms: _579  and  _580
REMARK  234  A    between atoms: _579  and  _582
REMARK  235  A    between atoms: _582  and  _583
REMARK  236  A    between atoms: _586  and  _588
REMARK  237  A    between atoms: _588  and  _589
REMARK  238  A    between atoms: _588  and  _591
REMARK  239  A    between atoms: _591  and  _592
REMARK  240  A    between atoms: _595  and  _597
REMARK  241  A    between atoms: _597  and  _598
REMARK  242  A    between atoms: _600  and  _602
REMARK  243  A    between atoms: _602  and  _603
REMARK  244  A    between atoms: _602  and  _605
REMARK  245  A    between atoms: _605  and  _606
REMARK  246  A    between atoms: _606  and  _607
REMARK  247  A    between atoms: _607  and  _608
REMARK  248  A    between atoms: _617  and  _619
REMARK  249  A    between atoms: _619  and  _620
REMARK  250  A    between atoms: _619  and  _622
REMARK  251  A    between atoms: _622  and  _623
REMARK  252  A    between atoms: _629  and  _631
REMARK  253  A    between atoms: _631  and  _632
REMARK  254  A    between atoms: _635  and  _637
REMARK  255  A    between atoms: _637  and  _638
REMARK  256  A    between atoms: _637  and  _640
REMARK  257  A    between atoms: _640  and  _641
REMARK  258  A    between atoms: _644  and  _646
REMARK  259  A    between atoms: _646  and  _647
REMARK  260  A    between atoms: _646  and  _649
REMARK  261  A    between atoms: _649  and  _650
REMARK  262  A    between atoms: _652  and  _654
REMARK  263  A    between atoms: _654  and  _655
REMARK  264  A    between atoms: _654  and  _657
REMARK  265  A    between atoms: _657  and  _658
REMARK  266  A    between atoms: _658  and  _659
REMARK  267  A    between atoms: _664  and  _666
REMARK  268  A    between atoms: _666  and  _667
REMARK  269  A    between atoms: _666  and  _669
REMARK  270  A    between atoms: _669  and  _670
REMARK  271  A    between atoms: _672  and  _674
REMARK  272  A    between atoms: _674  and  _675
REMARK  273  A    between atoms: _674  and  _677
REMARK  274  A    between atoms: _677  and  _678
REMARK  275  A    between atoms: _680  and  _682
REMARK  276  A    between atoms: _682  and  _683
REMARK  277  A    between atoms: _682  and  _685
REMARK  278  A    between atoms: _685  and  _686
REMARK  279  A    between atoms: _689  and  _691
REMARK  280  A    between atoms: _691  and  _692
REMARK  281  A    between atoms: _691  and  _694
REMARK  282  A    between atoms: _697  and  _699
REMARK  283  A    between atoms: _699  and  _700
REMARK  284  A    between atoms: _702  and  _704
REMARK  285  A    between atoms: _704  and  _705
REMARK  286  A    between atoms: _708  and  _710
REMARK  287  A    between atoms: _710  and  _711
REMARK  288  A    between atoms: _710  and  _713
REMARK  289  A    between atoms: _716  and  _718
REMARK  290  A    between atoms: _718  and  _719
REMARK  291  A    between atoms: _718  and  _721
REMARK  292  A    between atoms: _721  and  _722
REMARK  293  A    between atoms: _722  and  _723
REMARK  294  A    between atoms: _725  and  _727
REMARK  295  A    between atoms: _727  and  _728
REMARK  296  A    between atoms: _727  and  _730
REMARK  297  A    between atoms: _730  and  _731
REMARK  298  A    between atoms: _731  and  _732
REMARK                            x       y       z     vdW  Elec       q    Type
REMARK                         _______ _______ _______ _____ _____    ______ ____
ROOT
ATOM      1  O   HOH     1      -3.421  -3.544  23.743  0.00  0.00    +0.000 OA
ENDROOT
TORSDOF 0
REMARK  Name = ../refined-set-2016/2vkm/2vkm_pocket.pdb
REMARK  298 active torsions:
REMARK  status: ('A' for Active; 'I' for Inactive)
REMARK    1  A    between atoms: _1  and  _3
REMARK    2  A    between atoms: _3  and  _4
REMARK    3  A    between atoms: _6  and  _8
REMARK    4  A    between atoms: _8  and  _9
REMARK    5  A    between atoms: _8  and  _11
REMARK    6  A    between atoms: _11  and  _12
REMARK    7  A    between atoms: _12  and  _13
REMARK    8  A    between atoms: _13  and  _14
REMARK    9  A    between atoms: _14  and  _15
REMARK   10  A    between atoms: _19  and  _21
REMARK   11  A    between atoms: _21  and  _22
REMARK   12  A    between atoms: _21  and  _24
REMARK   13  A    between atoms: _24  and  _25
REMARK   14  A    between atoms: _27  and  _29
REMARK   15  A    between atoms: _29  and  _30
REMARK   16  A    between atoms: _32  and  _34
REMARK   17  A    between atoms: _34  and  _35
REMARK   18  A    between atoms: _34  and  _37
REMARK   19  A    between atoms: _37  and  _38
REMARK   20  A    between atoms: _38  and  _39
REMARK   21  A    between atoms: _44  and  _46
REMARK   22  A    between atoms: _46  and  _47
REMARK   23  A    between atoms: _49  and  _51
REMARK   24  A    between atoms: _51  and  _52
REMARK   25  A    between atoms: _51  and  _54
REMARK   26  A    between atoms: _54  and  _55
REMARK   27  A    between atoms: _60  and  _61
REMARK   28  A    between atoms: _63  and  _65
REMARK   29  A    between atoms: _65  and  _66
REMARK   30  A    between atoms: _65  and  _68
REMARK   31  A    between atoms: _68  and  _69
REMARK   32  A    between atoms: _74  and  _75
REMARK   33  A    between atoms: _77  and  _79
REMARK   34  A    between atoms: _79  and  _80
REMARK   35  A    between atoms: _79  and  _82
REMARK   36  A    between atoms: _82  and  _83
REMARK   37  A    between atoms: _86  and  _88
REMARK   38  A    between atoms: _88  and  _89
REMARK   39  A    between atoms: _88  and  _91
REMARK   40  A    between atoms: _94  and  _96
REMARK   41  A    between atoms: _96  and  _97
REMARK   42  A    between atoms: _96  and  _99
REMARK   43  A    between atoms: _99  and  _100
REMARK   44  A    between atoms: _103  and  _105
REMARK   45  A    between atoms: _105  and  _106
REMARK   46  A    between atoms: _105  and  _108
REMARK   47  A    between atoms: _108  and  _109
REMARK   48  A    between atoms: _112  and  _114
REMARK   49  A    between atoms: _114  and  _115
REMARK   50  A    between atoms: _117  and  _119
REMARK   51  A    between atoms: _119  and  _120
REMARK   52  A    between atoms: _119  and  _122
REMARK   53  A    between atoms: _122  and  _123
REMARK   54  A    between atoms: _125  and  _127
REMARK   55  A    between atoms: _127  and  _128
REMARK   56  A    between atoms: _127  and  _130
REMARK   57  A    between atoms: _130  and  _131
REMARK   58  A    between atoms: _133  and  _135
REMARK   59  A    between atoms: _135  and  _136
REMARK   60  A    between atoms: _135  and  _138
REMARK   61  A    between atoms: _138  and  _139
REMARK   62  A    between atoms: _144  and  _146
REMARK   63  A    between atoms: _146  and  _147
REMARK   64  A    between atoms: _146  and  _149
REMARK   65  A    between atoms: _153  and  _154
REMARK   66  A    between atoms: _159  and  _161
REMARK   67  A    between atoms: _161  and  _162
REMARK   68  A    between atoms: _161  and  _164
REMARK   69  A    between atoms: _164  and  _165
REMARK   70  A    between atoms: _170  and  _171
REMARK   71  A    between atoms: _173  and  _175
REMARK   72  A    between atoms: _175  and  _176
REMARK   73  A    between atoms: _175  and  _178
REMARK   74  A    between atoms: _178  and  _179
REMARK   75  A    between atoms: _182  and  _184
REMARK   76  A    between atoms: _184  and  _185
REMARK   77  A    between atoms: _184  and  _187
REMARK   78  A    between atoms: _187  and  _188
REMARK   79  A    between atoms: _188  and  _189
REMARK   80  A    between atoms: _194  and  _196
REMARK   81  A    between atoms: _196  and  _197
REMARK   82  A    between atoms: _199  and  _201
REMARK   83  A    between atoms: _201  and  _202
REMARK   84  A    between atoms: _201  and  _204
REMARK   85  A    between atoms: _204  and  _205
REMARK   86  A    between atoms: _205  and  _206
REMARK   87  A    between atoms: _206  and  _207
REMARK   88  A    between atoms: _207  and  _208
REMARK   89  A    between atoms: _212  and  _214
REMARK   90  A    between atoms: _214  and  _215
REMARK   91  A    between atoms: _214  and  _217
REMARK   92  A    between atoms: _217  and  _218
REMARK   93  A    between atoms: _228  and  _230
REMARK   94  A    between atoms: _230  and  _231
REMARK   95  A    between atoms: _230  and  _233
REMARK   96  A    between atoms: _233  and  _234
REMARK   97  A    between atoms: _237  and  _239
REMARK   98  A    between atoms: _239  and  _240
REMARK   99  A    between atoms: _239  and  _242
REMARK  100  A    between atoms: _242  and  _243
REMARK  101  A    between atoms: _243  and  _244
REMARK  102  A    between atoms: _244  and  _245
REMARK  103  A    between atoms: _245  and  _246
REMARK  104  A    between atoms: _250  and  _252
REMARK  105  A    between atoms: _252  and  _253
REMARK  106  A    between atoms: _252  and  _255
REMARK  107  A    between atoms: _255  and  _256
REMARK  108  A    between atoms: _262  and  _264
REMARK  109  A    between atoms: _264  and  _265
REMARK  110  A    between atoms: _264  and  _267
REMARK  111  A    between atoms: _267  and  _268
REMARK  112  A    between atoms: _274  and  _276
REMARK  113  A    between atoms: _276  and  _277
REMARK  114  A    between atoms: _276  and  _279
REMARK  115  A    between atoms: _279  and  _280
REMARK  116  A    between atoms: _283  and  _285
REMARK  117  A    between atoms: _285  and  _286
REMARK  118  A    between atoms: _285  and  _288
REMARK  119  A    between atoms: _288  and  _289
REMARK  120  A    between atoms: _291  and  _293
REMARK  121  A    between atoms: _293  and  _294
REMARK  122  A    between atoms: _293  and  _296
REMARK  123  A    between atoms: _296  and  _297
REMARK  124  A    between atoms: _307  and  _309
REMARK  125  A    between atoms: _309  and  _310
REMARK  126  A    between atoms: _312  and  _314
REMARK  127  A    between atoms: _314  and  _315
REMARK  128  A    between atoms: _314  and  _317
REMARK  129  A    between atoms: _317  and  _318
REMARK  130  A    between atoms: _321  and  _323
REMARK  131  A    between atoms: _323  and  _324
REMARK  132  A    between atoms: _323  and  _326
REMARK  133  A    between atoms: _326  and  _327
REMARK  134  A    between atoms: _330  and  _332
REMARK  135  A    between atoms: _332  and  _333
REMARK  136  A    between atoms: _335  and  _337
REMARK  137  A    between atoms: _337  and  _338
REMARK  138  A    between atoms: _337  and  _340
REMARK  139  A    between atoms: _340  and  _341
REMARK  140  A    between atoms: _344  and  _346
REMARK  141  A    between atoms: _346  and  _347
REMARK  142  A    between atoms: _350  and  _352
REMARK  143  A    between atoms: _352  and  _353
REMARK  144  A    between atoms: _352  and  _355
REMARK  145  A    between atoms: _355  and  _356
REMARK  146  A    between atoms: _361  and  _362
REMARK  147  A    between atoms: _364  and  _366
REMARK  148  A    between atoms: _366  and  _367
REMARK  149  A    between atoms: _370  and  _372
REMARK  150  A    between atoms: _372  and  _373
REMARK  151  A    between atoms: _372  and  _375
REMARK  152  A    between atoms: _375  and  _376
REMARK  153  A    between atoms: _376  and  _377
REMARK  154  A    between atoms: _380  and  _382
REMARK  155  A    between atoms: _382  and  _383
REMARK  156  A    between atoms: _382  and  _385
REMARK  157  A    between atoms: _385  and  _386
REMARK  158  A    between atoms: _389  and  _391
REMARK  159  A    between atoms: _391  and  _392
REMARK  160  A    between atoms: _395  and  _397
REMARK  161  A    between atoms: _397  and  _398
REMARK  162  A    between atoms: _397  and  _400
REMARK  163  A    between atoms: _400  and  _401
REMARK  164  A    between atoms: _401  and  _402
REMARK  165  A    between atoms: _402  and  _403
REMARK  166  A    between atoms: _412  and  _414
REMARK  167  A    between atoms: _414  and  _415
REMARK  168  A    between atoms: _414  and  _417
REMARK  169  A    between atoms: _417  and  _418
REMARK  170  A    between atoms: _421  and  _423
REMARK  171  A    between atoms: _423  and  _424
REMARK  172  A    between atoms: _426  and  _428
REMARK  173  A    between atoms: _428  and  _429
REMARK  174  A    between atoms: _428  and  _431
REMARK  175  A    between atoms: _431  and  _432
REMARK  176  A    between atoms: _442  and  _444
REMARK  177  A    between atoms: _444  and  _445
REMARK  178  A    between atoms: _444  and  _447
REMARK  179  A    between atoms: _447  and  _448
REMARK  180  A    between atoms: _453  and  _454
REMARK  181  A    between atoms: _456  and  _458
REMARK  182  A    between atoms: _458  and  _459
REMARK  183  A    between atoms: _458  and  _461
REMARK  184  A    between atoms: _461  and  _462
REMARK  185  A    between atoms: _467  and  _468
REMARK  186  A    between atoms: _470  and  _472
REMARK  187  A    between atoms: _472  and  _473
REMARK  188  A    between atoms: _472  and  _475
REMARK  189  A    between atoms: _475  and  _476
REMARK  190  A    between atoms: _476  and  _477
REMARK  191  A    between atoms: _477  and  _478
REMARK  192  A    between atoms: _478  and  _479
REMARK  193  A    between atoms: _483  and  _485
REMARK  194  A    between atoms: _485  and  _486
REMARK  195  A    between atoms: _485  and  _488
REMARK  196  A    between atoms: _488  and  _489
REMARK  197  A    between atoms: _492  and  _494
REMARK  198  A    between atoms: _494  and  _495
REMARK  199  A    between atoms: _494  and  _497
REMARK  200  A    between atoms: _500  and  _502
REMARK  201  A    between atoms: _502  and  _503
REMARK  202  A    between atoms: _502  and  _505
REMARK  203  A    between atoms: _505  and  _506
REMARK  204  A    between atoms: _509  and  _511
REMARK  205  A    between atoms: _511  and  _512
REMARK  206  A    between atoms: _511  and  _514
REMARK  207  A    between atoms: _514  and  _515
REMARK  208  A    between atoms: _517  and  _519
REMARK  209  A    between atoms: _519  and  _520
REMARK  210  A    between atoms: _522  and  _524
REMARK  211  A    between atoms: _524  and  _525
REMARK  212  A    between atoms: _524  and  _527
REMARK  213  A    between atoms: _527  and  _528
REMARK  214  A    between atoms: _531  and  _533
REMARK  215  A    between atoms: _533  and  _534
REMARK  216  A    between atoms: _533  and  _536
REMARK  217  A    between atoms: _536  and  _537
REMARK  218  A    between atoms: _540  and  _542
REMARK  219  A    between atoms: _542  and  _543
REMARK  220  A    between atoms: _542  and  _545
REMARK  221  A    between atoms: _545  and  _546
REMARK  222  A    between atoms: _551  and  _553
REMARK  223  A    between atoms: _553  and  _554
REMARK  224  A    between atoms: _553  and  _556
REMARK  225  A    between atoms: _556  and  _557
REMARK  226  A    between atoms: _560  and  _562
REMARK  227  A    between atoms: _562  and  _563
REMARK  228  A    between atoms: _562  and  _565
REMARK  229  A    between atoms: _565  and  _566
REMARK  230  A    between atoms: _566  and  _567
REMARK  231  A    between atoms: _567  and  _568
REMARK  232  A    between atoms: _577  and  _579
REMARK  233  A    between atoms: _579  and  _580
REMARK  234  A    between atoms: _579  and  _582
REMARK  235  A    between atoms: _582  and  _583
REMARK  236  A    between atoms: _586  and  _588
REMARK  237  A    between atoms: _588  and  _589
REMARK  238  A    between atoms: _588  and  _591
REMARK  239  A    between atoms: _591  and  _592
REMARK  240  A    between atoms: _595  and  _597
REMARK  241  A    between atoms: _597  and  _598
REMARK  242  A    between atoms: _600  and  _602
REMARK  243  A    between atoms: _602  and  _603
REMARK  244  A    between atoms: _602  and  _605
REMARK  245  A    between atoms: _605  and  _606
REMARK  246  A    between atoms: _606  and  _607
REMARK  247  A    between atoms: _607  and  _608
REMARK  248  A    between atoms: _617  and  _619
REMARK  249  A    between atoms: _619  and  _620
REMARK  250  A    between atoms: _619  and  _622
REMARK  251  A    between atoms: _622  and  _623
REMARK  252  A    between atoms: _629  and  _631
REMARK  253  A    between atoms: _631  and  _632
REMARK  254  A    between atoms: _635  and  _637
REMARK  255  A    between atoms: _637  and  _638
REMARK  256  A    between atoms: _637  and  _640
REMARK  257  A    between atoms: _640  and  _641
REMARK  258  A    between atoms: _644  and  _646
REMARK  259  A    between atoms: _646  and  _647
REMARK  260  A    between atoms: _646  and  _649
REMARK  261  A    between atoms: _649  and  _650
REMARK  262  A    between atoms: _652  and  _654
REMARK  263  A    between atoms: _654  and  _655
REMARK  264  A    between atoms: _654  and  _657
REMARK  265  A    between atoms: _657  and  _658
REMARK  266  A    between atoms: _658  and  _659
REMARK  267  A    between atoms: _664  and  _666
REMARK  268  A    between atoms: _666  and  _667
REMARK  269  A    between atoms: _666  and  _669
REMARK  270  A    between atoms: _669  and  _670
REMARK  271  A    between atoms: _672  and  _674
REMARK  272  A    between atoms: _674  and  _675
REMARK  273  A    between atoms: _674  and  _677
REMARK  274  A    between atoms: _677  and  _678
REMARK  275  A    between atoms: _680  and  _682
REMARK  276  A    between atoms: _682  and  _683
REMARK  277  A    between atoms: _682  and  _685
REMARK  278  A    between atoms: _685  and  _686
REMARK  279  A    between atoms: _689  and  _691
REMARK  280  A    between atoms: _691  and  _692
REMARK  281  A    between atoms: _691  and  _694
REMARK  282  A    between atoms: _697  and  _699
REMARK  283  A    between atoms: _699  and  _700
REMARK  284  A    between atoms: _702  and  _704
REMARK  285  A    between atoms: _704  and  _705
REMARK  286  A    between atoms: _708  and  _710
REMARK  287  A    between atoms: _710  and  _711
REMARK  288  A    between atoms: _710  and  _713
REMARK  289  A    between atoms: _716  and  _718
REMARK  290  A    between atoms: _718  and  _719
REMARK  291  A    between atoms: _718  and  _721
REMARK  292  A    between atoms: _721  and  _722
REMARK  293  A    between atoms: _722  and  _723
REMARK  294  A    between atoms: _725  and  _727
REMARK  295  A    between atoms: _727  and  _728
REMARK  296  A    between atoms: _727  and  _730
REMARK  297  A    between atoms: _730  and  _731
REMARK  298  A    between atoms: _731  and  _732
REMARK                            x       y       z     vdW  Elec       q    Type
REMARK                         _______ _______ _______ _____ _____    ______ ____
ROOT
ATOM      1  O   HOH     1      -6.090   1.250  29.845  0.00  0.00    +0.000 OA
ENDROOT
TORSDOF 0
REMARK  Name = ../refined-set-2016/2vkm/2vkm_pocket.pdb
REMARK  298 active torsions:
REMARK  status: ('A' for Active; 'I' for Inactive)
REMARK    1  A    between atoms: _1  and  _3
REMARK    2  A    between atoms: _3  and  _4
REMARK    3  A    between atoms: _6  and  _8
REMARK    4  A    between atoms: _8  and  _9
REMARK    5  A    between atoms: _8  and  _11
REMARK    6  A    between atoms: _11  and  _12
REMARK    7  A    between atoms: _12  and  _13
REMARK    8  A    between atoms: _13  and  _14
REMARK    9  A    between atoms: _14  and  _15
REMARK   10  A    between atoms: _19  and  _21
REMARK   11  A    between atoms: _21  and  _22
REMARK   12  A    between atoms: _21  and  _24
REMARK   13  A    between atoms: _24  and  _25
REMARK   14  A    between atoms: _27  and  _29
REMARK   15  A    between atoms: _29  and  _30
REMARK   16  A    between atoms: _32  and  _34
REMARK   17  A    between atoms: _34  and  _35
REMARK   18  A    between atoms: _34  and  _37
REMARK   19  A    between atoms: _37  and  _38
REMARK   20  A    between atoms: _38  and  _39
REMARK   21  A    between atoms: _44  and  _46
REMARK   22  A    between atoms: _46  and  _47
REMARK   23  A    between atoms: _49  and  _51
REMARK   24  A    between atoms: _51  and  _52
REMARK   25  A    between atoms: _51  and  _54
REMARK   26  A    between atoms: _54  and  _55
REMARK   27  A    between atoms: _60  and  _61
REMARK   28  A    between atoms: _63  and  _65
REMARK   29  A    between atoms: _65  and  _66
REMARK   30  A    between atoms: _65  and  _68
REMARK   31  A    between atoms: _68  and  _69
REMARK   32  A    between atoms: _74  and  _75
REMARK   33  A    between atoms: _77  and  _79
REMARK   34  A    between atoms: _79  and  _80
REMARK   35  A    between atoms: _79  and  _82
REMARK   36  A    between atoms: _82  and  _83
REMARK   37  A    between atoms: _86  and  _88
REMARK   38  A    between atoms: _88  and  _89
REMARK   39  A    between atoms: _88  and  _91
REMARK   40  A    between atoms: _94  and  _96
REMARK   41  A    between atoms: _96  and  _97
REMARK   42  A    between atoms: _96  and  _99
REMARK   43  A    between atoms: _99  and  _100
REMARK   44  A    between atoms: _103  and  _105
REMARK   45  A    between atoms: _105  and  _106
REMARK   46  A    between atoms: _105  and  _108
REMARK   47  A    between atoms: _108  and  _109
REMARK   48  A    between atoms: _112  and  _114
REMARK   49  A    between atoms: _114  and  _115
REMARK   50  A    between atoms: _117  and  _119
REMARK   51  A    between atoms: _119  and  _120
REMARK   52  A    between atoms: _119  and  _122
REMARK   53  A    between atoms: _122  and  _123
REMARK   54  A    between atoms: _125  and  _127
REMARK   55  A    between atoms: _127  and  _128
REMARK   56  A    between atoms: _127  and  _130
REMARK   57  A    between atoms: _130  and  _131
REMARK   58  A    between atoms: _133  and  _135
REMARK   59  A    between atoms: _135  and  _136
REMARK   60  A    between atoms: _135  and  _138
REMARK   61  A    between atoms: _138  and  _139
REMARK   62  A    between atoms: _144  and  _146
REMARK   63  A    between atoms: _146  and  _147
REMARK   64  A    between atoms: _146  and  _149
REMARK   65  A    between atoms: _153  and  _154
REMARK   66  A    between atoms: _159  and  _161
REMARK   67  A    between atoms: _161  and  _162
REMARK   68  A    between atoms: _161  and  _164
REMARK   69  A    between atoms: _164  and  _165
REMARK   70  A    between atoms: _170  and  _171
REMARK   71  A    between atoms: _173  and  _175
REMARK   72  A    between atoms: _175  and  _176
REMARK   73  A    between atoms: _175  and  _178
REMARK   74  A    between atoms: _178  and  _179
REMARK   75  A    between atoms: _182  and  _184
REMARK   76  A    between atoms: _184  and  _185
REMARK   77  A    between atoms: _184  and  _187
REMARK   78  A    between atoms: _187  and  _188
REMARK   79  A    between atoms: _188  and  _189
REMARK   80  A    between atoms: _194  and  _196
REMARK   81  A    between atoms: _196  and  _197
REMARK   82  A    between atoms: _199  and  _201
REMARK   83  A    between atoms: _201  and  _202
REMARK   84  A    between atoms: _201  and  _204
REMARK   85  A    between atoms: _204  and  _205
REMARK   86  A    between atoms: _205  and  _206
REMARK   87  A    between atoms: _206  and  _207
REMARK   88  A    between atoms: _207  and  _208
REMARK   89  A    between atoms: _212  and  _214
REMARK   90  A    between atoms: _214  and  _215
REMARK   91  A    between atoms: _214  and  _217
REMARK   92  A    between atoms: _217  and  _218
REMARK   93  A    between atoms: _228  and  _230
REMARK   94  A    between atoms: _230  and  _231
REMARK   95  A    between atoms: _230  and  _233
REMARK   96  A    between atoms: _233  and  _234
REMARK   97  A    between atoms: _237  and  _239
REMARK   98  A    between atoms: _239  and  _240
REMARK   99  A    between atoms: _239  and  _242
REMARK  100  A    between atoms: _242  and  _243
REMARK  101  A    between atoms: _243  and  _244
REMARK  102  A    between atoms: _244  and  _245
REMARK  103  A    between atoms: _245  and  _246
REMARK  104  A    between atoms: _250  and  _252
REMARK  105  A    between atoms: _252  and  _253
REMARK  106  A    between atoms: _252  and  _255
REMARK  107  A    between atoms: _255  and  _256
REMARK  108  A    between atoms: _262  and  _264
REMARK  109  A    between atoms: _264  and  _265
REMARK  110  A    between atoms: _264  and  _267
REMARK  111  A    between atoms: _267  and  _268
REMARK  112  A    between atoms: _274  and  _276
REMARK  113  A    between atoms: _276  and  _277
REMARK  114  A    between atoms: _276  and  _279
REMARK  115  A    between atoms: _279  and  _280
REMARK  116  A    between atoms: _283  and  _285
REMARK  117  A    between atoms: _285  and  _286
REMARK  118  A    between atoms: _285  and  _288
REMARK  119  A    between atoms: _288  and  _289
REMARK  120  A    between atoms: _291  and  _293
REMARK  121  A    between atoms: _293  and  _294
REMARK  122  A    between atoms: _293  and  _296
REMARK  123  A    between atoms: _296  and  _297
REMARK  124  A    between atoms: _307  and  _309
REMARK  125  A    between atoms: _309  and  _310
REMARK  126  A    between atoms: _312  and  _314
REMARK  127  A    between atoms: _314  and  _315
REMARK  128  A    between atoms: _314  and  _317
REMARK  129  A    between atoms: _317  and  _318
REMARK  130  A    between atoms: _321  and  _323
REMARK  131  A    between atoms: _323  and  _324
REMARK  132  A    between atoms: _323  and  _326
REMARK  133  A    between atoms: _326  and  _327
REMARK  134  A    between atoms: _330  and  _332
REMARK  135  A    between atoms: _332  and  _333
REMARK  136  A    between atoms: _335  and  _337
REMARK  137  A    between atoms: _337  and  _338
REMARK  138  A    between atoms: _337  and  _340
REMARK  139  A    between atoms: _340  and  _341
REMARK  140  A    between atoms: _344  and  _346
REMARK  141  A    between atoms: _346  and  _347
REMARK  142  A    between atoms: _350  and  _352
REMARK  143  A    between atoms: _352  and  _353
REMARK  144  A    between atoms: _352  and  _355
REMARK  145  A    between atoms: _355  and  _356
REMARK  146  A    between atoms: _361  and  _362
REMARK  147  A    between atoms: _364  and  _366
REMARK  148  A    between atoms: _366  and  _367
REMARK  149  A    between atoms: _370  and  _372
REMARK  150  A    between atoms: _372  and  _373
REMARK  151  A    between atoms: _372  and  _375
REMARK  152  A    between atoms: _375  and  _376
REMARK  153  A    between atoms: _376  and  _377
REMARK  154  A    between atoms: _380  and  _382
REMARK  155  A    between atoms: _382  and  _383
REMARK  156  A    between atoms: _382  and  _385
REMARK  157  A    between atoms: _385  and  _386
REMARK  158  A    between atoms: _389  and  _391
REMARK  159  A    between atoms: _391  and  _392
REMARK  160  A    between atoms: _395  and  _397
REMARK  161  A    between atoms: _397  and  _398
REMARK  162  A    between atoms: _397  and  _400
REMARK  163  A    between atoms: _400  and  _401
REMARK  164  A    between atoms: _401  and  _402
REMARK  165  A    between atoms: _402  and  _403
REMARK  166  A    between atoms: _412  and  _414
REMARK  167  A    between atoms: _414  and  _415
REMARK  168  A    between atoms: _414  and  _417
REMARK  169  A    between atoms: _417  and  _418
REMARK  170  A    between atoms: _421  and  _423
REMARK  171  A    between atoms: _423  and  _424
REMARK  172  A    between atoms: _426  and  _428
REMARK  173  A    between atoms: _428  and  _429
REMARK  174  A    between atoms: _428  and  _431
REMARK  175  A    between atoms: _431  and  _432
REMARK  176  A    between atoms: _442  and  _444
REMARK  177  A    between atoms: _444  and  _445
REMARK  178  A    between atoms: _444  and  _447
REMARK  179  A    between atoms: _447  and  _448
REMARK  180  A    between atoms: _453  and  _454
REMARK  181  A    between atoms: _456  and  _458
REMARK  182  A    between atoms: _458  and  _459
REMARK  183  A    between atoms: _458  and  _461
REMARK  184  A    between atoms: _461  and  _462
REMARK  185  A    between atoms: _467  and  _468
REMARK  186  A    between atoms: _470  and  _472
REMARK  187  A    between atoms: _472  and  _473
REMARK  188  A    between atoms: _472  and  _475
REMARK  189  A    between atoms: _475  and  _476
REMARK  190  A    between atoms: _476  and  _477
REMARK  191  A    between atoms: _477  and  _478
REMARK  192  A    between atoms: _478  and  _479
REMARK  193  A    between atoms: _483  and  _485
REMARK  194  A    between atoms: _485  and  _486
REMARK  195  A    between atoms: _485  and  _488
REMARK  196  A    between atoms: _488  and  _489
REMARK  197  A    between atoms: _492  and  _494
REMARK  198  A    between atoms: _494  and  _495
REMARK  199  A    between atoms: _494  and  _497
REMARK  200  A    between atoms: _500  and  _502
REMARK  201  A    between atoms: _502  and  _503
REMARK  202  A    between atoms: _502  and  _505
REMARK  203  A    between atoms: _505  and  _506
REMARK  204  A    between atoms: _509  and  _511
REMARK  205  A    between atoms: _511  and  _512
REMARK  206  A    between atoms: _511  and  _514
REMARK  207  A    between atoms: _514  and  _515
REMARK  208  A    between atoms: _517  and  _519
REMARK  209  A    between atoms: _519  and  _520
REMARK  210  A    between atoms: _522  and  _524
REMARK  211  A    between atoms: _524  and  _525
REMARK  212  A    between atoms: _524  and  _527
REMARK  213  A    between atoms: _527  and  _528
REMARK  214  A    between atoms: _531  and  _533
REMARK  215  A    between atoms: _533  and  _534
REMARK  216  A    between atoms: _533  and  _536
REMARK  217  A    between atoms: _536  and  _537
REMARK  218  A    between atoms: _540  and  _542
REMARK  219  A    between atoms: _542  and  _543
REMARK  220  A    between atoms: _542  and  _545
REMARK  221  A    between atoms: _545  and  _546
REMARK  222  A    between atoms: _551  and  _553
REMARK  223  A    between atoms: _553  and  _554
REMARK  224  A    between atoms: _553  and  _556
REMARK  225  A    between atoms: _556  and  _557
REMARK  226  A    between atoms: _560  and  _562
REMARK  227  A    between atoms: _562  and  _563
REMARK  228  A    between atoms: _562  and  _565
REMARK  229  A    between atoms: _565  and  _566
REMARK  230  A    between atoms: _566  and  _567
REMARK  231  A    between atoms: _567  and  _568
REMARK  232  A    between atoms: _577  and  _579
REMARK  233  A    between atoms: _579  and  _580
REMARK  234  A    between atoms: _579  and  _582
REMARK  235  A    between atoms: _582  and  _583
REMARK  236  A    between atoms: _586  and  _588
REMARK  237  A    between atoms: _588  and  _589
REMARK  238  A    between atoms: _588  and  _591
REMARK  239  A    between atoms: _591  and  _592
REMARK  240  A    between atoms: _595  and  _597
REMARK  241  A    between atoms: _597  and  _598
REMARK  242  A    between atoms: _600  and  _602
REMARK  243  A    between atoms: _602  and  _603
REMARK  244  A    between atoms: _602  and  _605
REMARK  245  A    between atoms: _605  and  _606
REMARK  246  A    between atoms: _606  and  _607
REMARK  247  A    between atoms: _607  and  _608
REMARK  248  A    between atoms: _617  and  _619
REMARK  249  A    between atoms: _619  and  _620
REMARK  250  A    between atoms: _619  and  _622
REMARK  251  A    between atoms: _622  and  _623
REMARK  252  A    between atoms: _629  and  _631
REMARK  253  A    between atoms: _631  and  _632
REMARK  254  A    between atoms: _635  and  _637
REMARK  255  A    between atoms: _637  and  _638
REMARK  256  A    between atoms: _637  and  _640
REMARK  257  A    between atoms: _640  and  _641
REMARK  258  A    between atoms: _644  and  _646
REMARK  259  A    between atoms: _646  and  _647
REMARK  260  A    between atoms: _646  and  _649
REMARK  261  A    between atoms: _649  and  _650
REMARK  262  A    between atoms: _652  and  _654
REMARK  263  A    between atoms: _654  and  _655
REMARK  264  A    between atoms: _654  and  _657
REMARK  265  A    between atoms: _657  and  _658
REMARK  266  A    between atoms: _658  and  _659
REMARK  267  A    between atoms: _664  and  _666
REMARK  268  A    between atoms: _666  and  _667
REMARK  269  A    between atoms: _666  and  _669
REMARK  270  A    between atoms: _669  and  _670
REMARK  271  A    between atoms: _672  and  _674
REMARK  272  A    between atoms: _674  and  _675
REMARK  273  A    between atoms: _674  and  _677
REMARK  274  A    between atoms: _677  and  _678
REMARK  275  A    between atoms: _680  and  _682
REMARK  276  A    between atoms: _682  and  _683
REMARK  277  A    between atoms: _682  and  _685
REMARK  278  A    between atoms: _685  and  _686
REMARK  279  A    between atoms: _689  and  _691
REMARK  280  A    between atoms: _691  and  _692
REMARK  281  A    between atoms: _691  and  _694
REMARK  282  A    between atoms: _697  and  _699
REMARK  283  A    between atoms: _699  and  _700
REMARK  284  A    between atoms: _702  and  _704
REMARK  285  A    between atoms: _704  and  _705
REMARK  286  A    between atoms: _708  and  _710
REMARK  287  A    between atoms: _710  and  _711
REMARK  288  A    between atoms: _710  and  _713
REMARK  289  A    between atoms: _716  and  _718
REMARK  290  A    between atoms: _718  and  _719
REMARK  291  A    between atoms: _718  and  _721
REMARK  292  A    between atoms: _721  and  _722
REMARK  293  A    between atoms: _722  and  _723
REMARK  294  A    between atoms: _725  and  _727
REMARK  295  A    between atoms: _727  and  _728
REMARK  296  A    between atoms: _727  and  _730
REMARK  297  A    between atoms: _730  and  _731
REMARK  298  A    between atoms: _731  and  _732
REMARK                            x       y       z     vdW  Elec       q    Type
REMARK                         _______ _______ _______ _____ _____    ______ ____
ROOT
ATOM      1  O   HOH     1      -5.106  -7.688  23.615  0.00  0.00    +0.000 OA
ENDROOT
TORSDOF 0
REMARK  Name = ../refined-set-2016/2vkm/2vkm_pocket.pdb
REMARK  298 active torsions:
REMARK  status: ('A' for Active; 'I' for Inactive)
REMARK    1  A    between atoms: _1  and  _3
REMARK    2  A    between atoms: _3  and  _4
REMARK    3  A    between atoms: _6  and  _8
REMARK    4  A    between atoms: _8  and  _9
REMARK    5  A    between atoms: _8  and  _11
REMARK    6  A    between atoms: _11  and  _12
REMARK    7  A    between atoms: _12  and  _13
REMARK    8  A    between atoms: _13  and  _14
REMARK    9  A    between atoms: _14  and  _15
REMARK   10  A    between atoms: _19  and  _21
REMARK   11  A    between atoms: _21  and  _22
REMARK   12  A    between atoms: _21  and  _24
REMARK   13  A    between atoms: _24  and  _25
REMARK   14  A    between atoms: _27  and  _29
REMARK   15  A    between atoms: _29  and  _30
REMARK   16  A    between atoms: _32  and  _34
REMARK   17  A    between atoms: _34  and  _35
REMARK   18  A    between atoms: _34  and  _37
REMARK   19  A    between atoms: _37  and  _38
REMARK   20  A    between atoms: _38  and  _39
REMARK   21  A    between atoms: _44  and  _46
REMARK   22  A    between atoms: _46  and  _47
REMARK   23  A    between atoms: _49  and  _51
REMARK   24  A    between atoms: _51  and  _52
REMARK   25  A    between atoms: _51  and  _54
REMARK   26  A    between atoms: _54  and  _55
REMARK   27  A    between atoms: _60  and  _61
REMARK   28  A    between atoms: _63  and  _65
REMARK   29  A    between atoms: _65  and  _66
REMARK   30  A    between atoms: _65  and  _68
REMARK   31  A    between atoms: _68  and  _69
REMARK   32  A    between atoms: _74  and  _75
REMARK   33  A    between atoms: _77  and  _79
REMARK   34  A    between atoms: _79  and  _80
REMARK   35  A    between atoms: _79  and  _82
REMARK   36  A    between atoms: _82  and  _83
REMARK   37  A    between atoms: _86  and  _88
REMARK   38  A    between atoms: _88  and  _89
REMARK   39  A    between atoms: _88  and  _91
REMARK   40  A    between atoms: _94  and  _96
REMARK   41  A    between atoms: _96  and  _97
REMARK   42  A    between atoms: _96  and  _99
REMARK   43  A    between atoms: _99  and  _100
REMARK   44  A    between atoms: _103  and  _105
REMARK   45  A    between atoms: _105  and  _106
REMARK   46  A    between atoms: _105  and  _108
REMARK   47  A    between atoms: _108  and  _109
REMARK   48  A    between atoms: _112  and  _114
REMARK   49  A    between atoms: _114  and  _115
REMARK   50  A    between atoms: _117  and  _119
REMARK   51  A    between atoms: _119  and  _120
REMARK   52  A    between atoms: _119  and  _122
REMARK   53  A    between atoms: _122  and  _123
REMARK   54  A    between atoms: _125  and  _127
REMARK   55  A    between atoms: _127  and  _128
REMARK   56  A    between atoms: _127  and  _130
REMARK   57  A    between atoms: _130  and  _131
REMARK   58  A    between atoms: _133  and  _135
REMARK   59  A    between atoms: _135  and  _136
REMARK   60  A    between atoms: _135  and  _138
REMARK   61  A    between atoms: _138  and  _139
REMARK   62  A    between atoms: _144  and  _146
REMARK   63  A    between atoms: _146  and  _147
REMARK   64  A    between atoms: _146  and  _149
REMARK   65  A    between atoms: _153  and  _154
REMARK   66  A    between atoms: _159  and  _161
REMARK   67  A    between atoms: _161  and  _162
REMARK   68  A    between atoms: _161  and  _164
REMARK   69  A    between atoms: _164  and  _165
REMARK   70  A    between atoms: _170  and  _171
REMARK   71  A    between atoms: _173  and  _175
REMARK   72  A    between atoms: _175  and  _176
REMARK   73  A    between atoms: _175  and  _178
REMARK   74  A    between atoms: _178  and  _179
REMARK   75  A    between atoms: _182  and  _184
REMARK   76  A    between atoms: _184  and  _185
REMARK   77  A    between atoms: _184  and  _187
REMARK   78  A    between atoms: _187  and  _188
REMARK   79  A    between atoms: _188  and  _189
REMARK   80  A    between atoms: _194  and  _196
REMARK   81  A    between atoms: _196  and  _197
REMARK   82  A    between atoms: _199  and  _201
REMARK   83  A    between atoms: _201  and  _202
REMARK   84  A    between atoms: _201  and  _204
REMARK   85  A    between atoms: _204  and  _205
REMARK   86  A    between atoms: _205  and  _206
REMARK   87  A    between atoms: _206  and  _207
REMARK   88  A    between atoms: _207  and  _208
REMARK   89  A    between atoms: _212  and  _214
REMARK   90  A    between atoms: _214  and  _215
REMARK   91  A    between atoms: _214  and  _217
REMARK   92  A    between atoms: _217  and  _218
REMARK   93  A    between atoms: _228  and  _230
REMARK   94  A    between atoms: _230  and  _231
REMARK   95  A    between atoms: _230  and  _233
REMARK   96  A    between atoms: _233  and  _234
REMARK   97  A    between atoms: _237  and  _239
REMARK   98  A    between atoms: _239  and  _240
REMARK   99  A    between atoms: _239  and  _242
REMARK  100  A    between atoms: _242  and  _243
REMARK  101  A    between atoms: _243  and  _244
REMARK  102  A    between atoms: _244  and  _245
REMARK  103  A    between atoms: _245  and  _246
REMARK  104  A    between atoms: _250  and  _252
REMARK  105  A    between atoms: _252  and  _253
REMARK  106  A    between atoms: _252  and  _255
REMARK  107  A    between atoms: _255  and  _256
REMARK  108  A    between atoms: _262  and  _264
REMARK  109  A    between atoms: _264  and  _265
REMARK  110  A    between atoms: _264  and  _267
REMARK  111  A    between atoms: _267  and  _268
REMARK  112  A    between atoms: _274  and  _276
REMARK  113  A    between atoms: _276  and  _277
REMARK  114  A    between atoms: _276  and  _279
REMARK  115  A    between atoms: _279  and  _280
REMARK  116  A    between atoms: _283  and  _285
REMARK  117  A    between atoms: _285  and  _286
REMARK  118  A    between atoms: _285  and  _288
REMARK  119  A    between atoms: _288  and  _289
REMARK  120  A    between atoms: _291  and  _293
REMARK  121  A    between atoms: _293  and  _294
REMARK  122  A    between atoms: _293  and  _296
REMARK  123  A    between atoms: _296  and  _297
REMARK  124  A    between atoms: _307  and  _309
REMARK  125  A    between atoms: _309  and  _310
REMARK  126  A    between atoms: _312  and  _314
REMARK  127  A    between atoms: _314  and  _315
REMARK  128  A    between atoms: _314  and  _317
REMARK  129  A    between atoms: _317  and  _318
REMARK  130  A    between atoms: _321  and  _323
REMARK  131  A    between atoms: _323  and  _324
REMARK  132  A    between atoms: _323  and  _326
REMARK  133  A    between atoms: _326  and  _327
REMARK  134  A    between atoms: _330  and  _332
REMARK  135  A    between atoms: _332  and  _333
REMARK  136  A    between atoms: _335  and  _337
REMARK  137  A    between atoms: _337  and  _338
REMARK  138  A    between atoms: _337  and  _340
REMARK  139  A    between atoms: _340  and  _341
REMARK  140  A    between atoms: _344  and  _346
REMARK  141  A    between atoms: _346  and  _347
REMARK  142  A    between atoms: _350  and  _352
REMARK  143  A    between atoms: _352  and  _353
REMARK  144  A    between atoms: _352  and  _355
REMARK  145  A    between atoms: _355  and  _356
REMARK  146  A    between atoms: _361  and  _362
REMARK  147  A    between atoms: _364  and  _366
REMARK  148  A    between atoms: _366  and  _367
REMARK  149  A    between atoms: _370  and  _372
REMARK  150  A    between atoms: _372  and  _373
REMARK  151  A    between atoms: _372  and  _375
REMARK  152  A    between atoms: _375  and  _376
REMARK  153  A    between atoms: _376  and  _377
REMARK  154  A    between atoms: _380  and  _382
REMARK  155  A    between atoms: _382  and  _383
REMARK  156  A    between atoms: _382  and  _385
REMARK  157  A    between atoms: _385  and  _386
REMARK  158  A    between atoms: _389  and  _391
REMARK  159  A    between atoms: _391  and  _392
REMARK  160  A    between atoms: _395  and  _397
REMARK  161  A    between atoms: _397  and  _398
REMARK  162  A    between atoms: _397  and  _400
REMARK  163  A    between atoms: _400  and  _401
REMARK  164  A    between atoms: _401  and  _402
REMARK  165  A    between atoms: _402  and  _403
REMARK  166  A    between atoms: _412  and  _414
REMARK  167  A    between atoms: _414  and  _415
REMARK  168  A    between atoms: _414  and  _417
REMARK  169  A    between atoms: _417  and  _418
REMARK  170  A    between atoms: _421  and  _423
REMARK  171  A    between atoms: _423  and  _424
REMARK  172  A    between atoms: _426  and  _428
REMARK  173  A    between atoms: _428  and  _429
REMARK  174  A    between atoms: _428  and  _431
REMARK  175  A    between atoms: _431  and  _432
REMARK  176  A    between atoms: _442  and  _444
REMARK  177  A    between atoms: _444  and  _445
REMARK  178  A    between atoms: _444  and  _447
REMARK  179  A    between atoms: _447  and  _448
REMARK  180  A    between atoms: _453  and  _454
REMARK  181  A    between atoms: _456  and  _458
REMARK  182  A    between atoms: _458  and  _459
REMARK  183  A    between atoms: _458  and  _461
REMARK  184  A    between atoms: _461  and  _462
REMARK  185  A    between atoms: _467  and  _468
REMARK  186  A    between atoms: _470  and  _472
REMARK  187  A    between atoms: _472  and  _473
REMARK  188  A    between atoms: _472  and  _475
REMARK  189  A    between atoms: _475  and  _476
REMARK  190  A    between atoms: _476  and  _477
REMARK  191  A    between atoms: _477  and  _478
REMARK  192  A    between atoms: _478  and  _479
REMARK  193  A    between atoms: _483  and  _485
REMARK  194  A    between atoms: _485  and  _486
REMARK  195  A    between atoms: _485  and  _488
REMARK  196  A    between atoms: _488  and  _489
REMARK  197  A    between atoms: _492  and  _494
REMARK  198  A    between atoms: _494  and  _495
REMARK  199  A    between atoms: _494  and  _497
REMARK  200  A    between atoms: _500  and  _502
REMARK  201  A    between atoms: _502  and  _503
REMARK  202  A    between atoms: _502  and  _505
REMARK  203  A    between atoms: _505  and  _506
REMARK  204  A    between atoms: _509  and  _511
REMARK  205  A    between atoms: _511  and  _512
REMARK  206  A    between atoms: _511  and  _514
REMARK  207  A    between atoms: _514  and  _515
REMARK  208  A    between atoms: _517  and  _519
REMARK  209  A    between atoms: _519  and  _520
REMARK  210  A    between atoms: _522  and  _524
REMARK  211  A    between atoms: _524  and  _525
REMARK  212  A    between atoms: _524  and  _527
REMARK  213  A    between atoms: _527  and  _528
REMARK  214  A    between atoms: _531  and  _533
REMARK  215  A    between atoms: _533  and  _534
REMARK  216  A    between atoms: _533  and  _536
REMARK  217  A    between atoms: _536  and  _537
REMARK  218  A    between atoms: _540  and  _542
REMARK  219  A    between atoms: _542  and  _543
REMARK  220  A    between atoms: _542  and  _545
REMARK  221  A    between atoms: _545  and  _546
REMARK  222  A    between atoms: _551  and  _553
REMARK  223  A    between atoms: _553  and  _554
REMARK  224  A    between atoms: _553  and  _556
REMARK  225  A    between atoms: _556  and  _557
REMARK  226  A    between atoms: _560  and  _562
REMARK  227  A    between atoms: _562  and  _563
REMARK  228  A    between atoms: _562  and  _565
REMARK  229  A    between atoms: _565  and  _566
REMARK  230  A    between atoms: _566  and  _567
REMARK  231  A    between atoms: _567  and  _568
REMARK  232  A    between atoms: _577  and  _579
REMARK  233  A    between atoms: _579  and  _580
REMARK  234  A    between atoms: _579  and  _582
REMARK  235  A    between atoms: _582  and  _583
REMARK  236  A    between atoms: _586  and  _588
REMARK  237  A    between atoms: _588  and  _589
REMARK  238  A    between atoms: _588  and  _591
REMARK  239  A    between atoms: _591  and  _592
REMARK  240  A    between atoms: _595  and  _597
REMARK  241  A    between atoms: _597  and  _598
REMARK  242  A    between atoms: _600  and  _602
REMARK  243  A    between atoms: _602  and  _603
REMARK  244  A    between atoms: _602  and  _605
REMARK  245  A    between atoms: _605  and  _606
REMARK  246  A    between atoms: _606  and  _607
REMARK  247  A    between atoms: _607  and  _608
REMARK  248  A    between atoms: _617  and  _619
REMARK  249  A    between atoms: _619  and  _620
REMARK  250  A    between atoms: _619  and  _622
REMARK  251  A    between atoms: _622  and  _623
REMARK  252  A    between atoms: _629  and  _631
REMARK  253  A    between atoms: _631  and  _632
REMARK  254  A    between atoms: _635  and  _637
REMARK  255  A    between atoms: _637  and  _638
REMARK  256  A    between atoms: _637  and  _640
REMARK  257  A    between atoms: _640  and  _641
REMARK  258  A    between atoms: _644  and  _646
REMARK  259  A    between atoms: _646  and  _647
REMARK  260  A    between atoms: _646  and  _649
REMARK  261  A    between atoms: _649  and  _650
REMARK  262  A    between atoms: _652  and  _654
REMARK  263  A    between atoms: _654  and  _655
REMARK  264  A    between atoms: _654  and  _657
REMARK  265  A    between atoms: _657  and  _658
REMARK  266  A    between atoms: _658  and  _659
REMARK  267  A    between atoms: _664  and  _666
REMARK  268  A    between atoms: _666  and  _667
REMARK  269  A    between atoms: _666  and  _669
REMARK  270  A    between atoms: _669  and  _670
REMARK  271  A    between atoms: _672  and  _674
REMARK  272  A    between atoms: _674  and  _675
REMARK  273  A    between atoms: _674  and  _677
REMARK  274  A    between atoms: _677  and  _678
REMARK  275  A    between atoms: _680  and  _682
REMARK  276  A    between atoms: _682  and  _683
REMARK  277  A    between atoms: _682  and  _685
REMARK  278  A    between atoms: _685  and  _686
REMARK  279  A    between atoms: _689  and  _691
REMARK  280  A    between atoms: _691  and  _692
REMARK  281  A    between atoms: _691  and  _694
REMARK  282  A    between atoms: _697  and  _699
REMARK  283  A    between atoms: _699  and  _700
REMARK  284  A    between atoms: _702  and  _704
REMARK  285  A    between atoms: _704  and  _705
REMARK  286  A    between atoms: _708  and  _710
REMARK  287  A    between atoms: _710  and  _711
REMARK  288  A    between atoms: _710  and  _713
REMARK  289  A    between atoms: _716  and  _718
REMARK  290  A    between atoms: _718  and  _719
REMARK  291  A    between atoms: _718  and  _721
REMARK  292  A    between atoms: _721  and  _722
REMARK  293  A    between atoms: _722  and  _723
REMARK  294  A    between atoms: _725  and  _727
REMARK  295  A    between atoms: _727  and  _728
REMARK  296  A    between atoms: _727  and  _730
REMARK  297  A    between atoms: _730  and  _731
REMARK  298  A    between atoms: _731  and  _732
REMARK                            x       y       z     vdW  Elec       q    Type
REMARK                         _______ _______ _______ _____ _____    ______ ____
ROOT
ATOM      1  O   HOH     1      -8.990  -7.192  25.105  0.00  0.00    +0.000 OA
ENDROOT
TORSDOF 0
REMARK  Name = ../refined-set-2016/2vkm/2vkm_pocket.pdb
REMARK  298 active torsions:
REMARK  status: ('A' for Active; 'I' for Inactive)
REMARK    1  A    between atoms: _1  and  _3
REMARK    2  A    between atoms: _3  and  _4
REMARK    3  A    between atoms: _6  and  _8
REMARK    4  A    between atoms: _8  and  _9
REMARK    5  A    between atoms: _8  and  _11
REMARK    6  A    between atoms: _11  and  _12
REMARK    7  A    between atoms: _12  and  _13
REMARK    8  A    between atoms: _13  and  _14
REMARK    9  A    between atoms: _14  and  _15
REMARK   10  A    between atoms: _19  and  _21
REMARK   11  A    between atoms: _21  and  _22
REMARK   12  A    between atoms: _21  and  _24
REMARK   13  A    between atoms: _24  and  _25
REMARK   14  A    between atoms: _27  and  _29
REMARK   15  A    between atoms: _29  and  _30
REMARK   16  A    between atoms: _32  and  _34
REMARK   17  A    between atoms: _34  and  _35
REMARK   18  A    between atoms: _34  and  _37
REMARK   19  A    between atoms: _37  and  _38
REMARK   20  A    between atoms: _38  and  _39
REMARK   21  A    between atoms: _44  and  _46
REMARK   22  A    between atoms: _46  and  _47
REMARK   23  A    between atoms: _49  and  _51
REMARK   24  A    between atoms: _51  and  _52
REMARK   25  A    between atoms: _51  and  _54
REMARK   26  A    between atoms: _54  and  _55
REMARK   27  A    between atoms: _60  and  _61
REMARK   28  A    between atoms: _63  and  _65
REMARK   29  A    between atoms: _65  and  _66
REMARK   30  A    between atoms: _65  and  _68
REMARK   31  A    between atoms: _68  and  _69
REMARK   32  A    between atoms: _74  and  _75
REMARK   33  A    between atoms: _77  and  _79
REMARK   34  A    between atoms: _79  and  _80
REMARK   35  A    between atoms: _79  and  _82
REMARK   36  A    between atoms: _82  and  _83
REMARK   37  A    between atoms: _86  and  _88
REMARK   38  A    between atoms: _88  and  _89
REMARK   39  A    between atoms: _88  and  _91
REMARK   40  A    between atoms: _94  and  _96
REMARK   41  A    between atoms: _96  and  _97
REMARK   42  A    between atoms: _96  and  _99
REMARK   43  A    between atoms: _99  and  _100
REMARK   44  A    between atoms: _103  and  _105
REMARK   45  A    between atoms: _105  and  _106
REMARK   46  A    between atoms: _105  and  _108
REMARK   47  A    between atoms: _108  and  _109
REMARK   48  A    between atoms: _112  and  _114
REMARK   49  A    between atoms: _114  and  _115
REMARK   50  A    between atoms: _117  and  _119
REMARK   51  A    between atoms: _119  and  _120
REMARK   52  A    between atoms: _119  and  _122
REMARK   53  A    between atoms: _122  and  _123
REMARK   54  A    between atoms: _125  and  _127
REMARK   55  A    between atoms: _127  and  _128
REMARK   56  A    between atoms: _127  and  _130
REMARK   57  A    between atoms: _130  and  _131
REMARK   58  A    between atoms: _133  and  _135
REMARK   59  A    between atoms: _135  and  _136
REMARK   60  A    between atoms: _135  and  _138
REMARK   61  A    between atoms: _138  and  _139
REMARK   62  A    between atoms: _144  and  _146
REMARK   63  A    between atoms: _146  and  _147
REMARK   64  A    between atoms: _146  and  _149
REMARK   65  A    between atoms: _153  and  _154
REMARK   66  A    between atoms: _159  and  _161
REMARK   67  A    between atoms: _161  and  _162
REMARK   68  A    between atoms: _161  and  _164
REMARK   69  A    between atoms: _164  and  _165
REMARK   70  A    between atoms: _170  and  _171
REMARK   71  A    between atoms: _173  and  _175
REMARK   72  A    between atoms: _175  and  _176
REMARK   73  A    between atoms: _175  and  _178
REMARK   74  A    between atoms: _178  and  _179
REMARK   75  A    between atoms: _182  and  _184
REMARK   76  A    between atoms: _184  and  _185
REMARK   77  A    between atoms: _184  and  _187
REMARK   78  A    between atoms: _187  and  _188
REMARK   79  A    between atoms: _188  and  _189
REMARK   80  A    between atoms: _194  and  _196
REMARK   81  A    between atoms: _196  and  _197
REMARK   82  A    between atoms: _199  and  _201
REMARK   83  A    between atoms: _201  and  _202
REMARK   84  A    between atoms: _201  and  _204
REMARK   85  A    between atoms: _204  and  _205
REMARK   86  A    between atoms: _205  and  _206
REMARK   87  A    between atoms: _206  and  _207
REMARK   88  A    between atoms: _207  and  _208
REMARK   89  A    between atoms: _212  and  _214
REMARK   90  A    between atoms: _214  and  _215
REMARK   91  A    between atoms: _214  and  _217
REMARK   92  A    between atoms: _217  and  _218
REMARK   93  A    between atoms: _228  and  _230
REMARK   94  A    between atoms: _230  and  _231
REMARK   95  A    between atoms: _230  and  _233
REMARK   96  A    between atoms: _233  and  _234
REMARK   97  A    between atoms: _237  and  _239
REMARK   98  A    between atoms: _239  and  _240
REMARK   99  A    between atoms: _239  and  _242
REMARK  100  A    between atoms: _242  and  _243
REMARK  101  A    between atoms: _243  and  _244
REMARK  102  A    between atoms: _244  and  _245
REMARK  103  A    between atoms: _245  and  _246
REMARK  104  A    between atoms: _250  and  _252
REMARK  105  A    between atoms: _252  and  _253
REMARK  106  A    between atoms: _252  and  _255
REMARK  107  A    between atoms: _255  and  _256
REMARK  108  A    between atoms: _262  and  _264
REMARK  109  A    between atoms: _264  and  _265
REMARK  110  A    between atoms: _264  and  _267
REMARK  111  A    between atoms: _267  and  _268
REMARK  112  A    between atoms: _274  and  _276
REMARK  113  A    between atoms: _276  and  _277
REMARK  114  A    between atoms: _276  and  _279
REMARK  115  A    between atoms: _279  and  _280
REMARK  116  A    between atoms: _283  and  _285
REMARK  117  A    between atoms: _285  and  _286
REMARK  118  A    between atoms: _285  and  _288
REMARK  119  A    between atoms: _288  and  _289
REMARK  120  A    between atoms: _291  and  _293
REMARK  121  A    between atoms: _293  and  _294
REMARK  122  A    between atoms: _293  and  _296
REMARK  123  A    between atoms: _296  and  _297
REMARK  124  A    between atoms: _307  and  _309
REMARK  125  A    between atoms: _309  and  _310
REMARK  126  A    between atoms: _312  and  _314
REMARK  127  A    between atoms: _314  and  _315
REMARK  128  A    between atoms: _314  and  _317
REMARK  129  A    between atoms: _317  and  _318
REMARK  130  A    between atoms: _321  and  _323
REMARK  131  A    between atoms: _323  and  _324
REMARK  132  A    between atoms: _323  and  _326
REMARK  133  A    between atoms: _326  and  _327
REMARK  134  A    between atoms: _330  and  _332
REMARK  135  A    between atoms: _332  and  _333
REMARK  136  A    between atoms: _335  and  _337
REMARK  137  A    between atoms: _337  and  _338
REMARK  138  A    between atoms: _337  and  _340
REMARK  139  A    between atoms: _340  and  _341
REMARK  140  A    between atoms: _344  and  _346
REMARK  141  A    between atoms: _346  and  _347
REMARK  142  A    between atoms: _350  and  _352
REMARK  143  A    between atoms: _352  and  _353
REMARK  144  A    between atoms: _352  and  _355
REMARK  145  A    between atoms: _355  and  _356
REMARK  146  A    between atoms: _361  and  _362
REMARK  147  A    between atoms: _364  and  _366
REMARK  148  A    between atoms: _366  and  _367
REMARK  149  A    between atoms: _370  and  _372
REMARK  150  A    between atoms: _372  and  _373
REMARK  151  A    between atoms: _372  and  _375
REMARK  152  A    between atoms: _375  and  _376
REMARK  153  A    between atoms: _376  and  _377
REMARK  154  A    between atoms: _380  and  _382
REMARK  155  A    between atoms: _382  and  _383
REMARK  156  A    between atoms: _382  and  _385
REMARK  157  A    between atoms: _385  and  _386
REMARK  158  A    between atoms: _389  and  _391
REMARK  159  A    between atoms: _391  and  _392
REMARK  160  A    between atoms: _395  and  _397
REMARK  161  A    between atoms: _397  and  _398
REMARK  162  A    between atoms: _397  and  _400
REMARK  163  A    between atoms: _400  and  _401
REMARK  164  A    between atoms: _401  and  _402
REMARK  165  A    between atoms: _402  and  _403
REMARK  166  A    between atoms: _412  and  _414
REMARK  167  A    between atoms: _414  and  _415
REMARK  168  A    between atoms: _414  and  _417
REMARK  169  A    between atoms: _417  and  _418
REMARK  170  A    between atoms: _421  and  _423
REMARK  171  A    between atoms: _423  and  _424
REMARK  172  A    between atoms: _426  and  _428
REMARK  173  A    between atoms: _428  and  _429
REMARK  174  A    between atoms: _428  and  _431
REMARK  175  A    between atoms: _431  and  _432
REMARK  176  A    between atoms: _442  and  _444
REMARK  177  A    between atoms: _444  and  _445
REMARK  178  A    between atoms: _444  and  _447
REMARK  179  A    between atoms: _447  and  _448
REMARK  180  A    between atoms: _453  and  _454
REMARK  181  A    between atoms: _456  and  _458
REMARK  182  A    between atoms: _458  and  _459
REMARK  183  A    between atoms: _458  and  _461
REMARK  184  A    between atoms: _461  and  _462
REMARK  185  A    between atoms: _467  and  _468
REMARK  186  A    between atoms: _470  and  _472
REMARK  187  A    between atoms: _472  and  _473
REMARK  188  A    between atoms: _472  and  _475
REMARK  189  A    between atoms: _475  and  _476
REMARK  190  A    between atoms: _476  and  _477
REMARK  191  A    between atoms: _477  and  _478
REMARK  192  A    between atoms: _478  and  _479
REMARK  193  A    between atoms: _483  and  _485
REMARK  194  A    between atoms: _485  and  _486
REMARK  195  A    between atoms: _485  and  _488
REMARK  196  A    between atoms: _488  and  _489
REMARK  197  A    between atoms: _492  and  _494
REMARK  198  A    between atoms: _494  and  _495
REMARK  199  A    between atoms: _494  and  _497
REMARK  200  A    between atoms: _500  and  _502
REMARK  201  A    between atoms: _502  and  _503
REMARK  202  A    between atoms: _502  and  _505
REMARK  203  A    between atoms: _505  and  _506
REMARK  204  A    between atoms: _509  and  _511
REMARK  205  A    between atoms: _511  and  _512
REMARK  206  A    between atoms: _511  and  _514
REMARK  207  A    between atoms: _514  and  _515
REMARK  208  A    between atoms: _517  and  _519
REMARK  209  A    between atoms: _519  and  _520
REMARK  210  A    between atoms: _522  and  _524
REMARK  211  A    between atoms: _524  and  _525
REMARK  212  A    between atoms: _524  and  _527
REMARK  213  A    between atoms: _527  and  _528
REMARK  214  A    between atoms: _531  and  _533
REMARK  215  A    between atoms: _533  and  _534
REMARK  216  A    between atoms: _533  and  _536
REMARK  217  A    between atoms: _536  and  _537
REMARK  218  A    between atoms: _540  and  _542
REMARK  219  A    between atoms: _542  and  _543
REMARK  220  A    between atoms: _542  and  _545
REMARK  221  A    between atoms: _545  and  _546
REMARK  222  A    between atoms: _551  and  _553
REMARK  223  A    between atoms: _553  and  _554
REMARK  224  A    between atoms: _553  and  _556
REMARK  225  A    between atoms: _556  and  _557
REMARK  226  A    between atoms: _560  and  _562
REMARK  227  A    between atoms: _562  and  _563
REMARK  228  A    between atoms: _562  and  _565
REMARK  229  A    between atoms: _565  and  _566
REMARK  230  A    between atoms: _566  and  _567
REMARK  231  A    between atoms: _567  and  _568
REMARK  232  A    between atoms: _577  and  _579
REMARK  233  A    between atoms: _579  and  _580
REMARK  234  A    between atoms: _579  and  _582
REMARK  235  A    between atoms: _582  and  _583
REMARK  236  A    between atoms: _586  and  _588
REMARK  237  A    between atoms: _588  and  _589
REMARK  238  A    between atoms: _588  and  _591
REMARK  239  A    between atoms: _591  and  _592
REMARK  240  A    between atoms: _595  and  _597
REMARK  241  A    between atoms: _597  and  _598
REMARK  242  A    between atoms: _600  and  _602
REMARK  243  A    between atoms: _602  and  _603
REMARK  244  A    between atoms: _602  and  _605
REMARK  245  A    between atoms: _605  and  _606
REMARK  246  A    between atoms: _606  and  _607
REMARK  247  A    between atoms: _607  and  _608
REMARK  248  A    between atoms: _617  and  _619
REMARK  249  A    between atoms: _619  and  _620
REMARK  250  A    between atoms: _619  and  _622
REMARK  251  A    between atoms: _622  and  _623
REMARK  252  A    between atoms: _629  and  _631
REMARK  253  A    between atoms: _631  and  _632
REMARK  254  A    between atoms: _635  and  _637
REMARK  255  A    between atoms: _637  and  _638
REMARK  256  A    between atoms: _637  and  _640
REMARK  257  A    between atoms: _640  and  _641
REMARK  258  A    between atoms: _644  and  _646
REMARK  259  A    between atoms: _646  and  _647
REMARK  260  A    between atoms: _646  and  _649
REMARK  261  A    between atoms: _649  and  _650
REMARK  262  A    between atoms: _652  and  _654
REMARK  263  A    between atoms: _654  and  _655
REMARK  264  A    between atoms: _654  and  _657
REMARK  265  A    between atoms: _657  and  _658
REMARK  266  A    between atoms: _658  and  _659
REMARK  267  A    between atoms: _664  and  _666
REMARK  268  A    between atoms: _666  and  _667
REMARK  269  A    between atoms: _666  and  _669
REMARK  270  A    between atoms: _669  and  _670
REMARK  271  A    between atoms: _672  and  _674
REMARK  272  A    between atoms: _674  and  _675
REMARK  273  A    between atoms: _674  and  _677
REMARK  274  A    between atoms: _677  and  _678
REMARK  275  A    between atoms: _680  and  _682
REMARK  276  A    between atoms: _682  and  _683
REMARK  277  A    between atoms: _682  and  _685
REMARK  278  A    between atoms: _685  and  _686
REMARK  279  A    between atoms: _689  and  _691
REMARK  280  A    between atoms: _691  and  _692
REMARK  281  A    between atoms: _691  and  _694
REMARK  282  A    between atoms: _697  and  _699
REMARK  283  A    between atoms: _699  and  _700
REMARK  284  A    between atoms: _702  and  _704
REMARK  285  A    between atoms: _704  and  _705
REMARK  286  A    between atoms: _708  and  _710
REMARK  287  A    between atoms: _710  and  _711
REMARK  288  A    between atoms: _710  and  _713
REMARK  289  A    between atoms: _716  and  _718
REMARK  290  A    between atoms: _718  and  _719
REMARK  291  A    between atoms: _718  and  _721
REMARK  292  A    between atoms: _721  and  _722
REMARK  293  A    between atoms: _722  and  _723
REMARK  294  A    between atoms: _725  and  _727
REMARK  295  A    between atoms: _727  and  _728
REMARK  296  A    between atoms: _727  and  _730
REMARK  297  A    between atoms: _730  and  _731
REMARK  298  A    between atoms: _731  and  _732
REMARK                            x       y       z     vdW  Elec       q    Type
REMARK                         _______ _______ _______ _____ _____    ______ ____
ROOT
ATOM      1  O   HOH     1       8.661  -2.265  28.408  0.00  0.00    +0.000 OA
ENDROOT
TORSDOF 0
REMARK  Name = ../refined-set-2016/2vkm/2vkm_pocket.pdb
REMARK  298 active torsions:
REMARK  status: ('A' for Active; 'I' for Inactive)
REMARK    1  A    between atoms: _1  and  _3
REMARK    2  A    between atoms: _3  and  _4
REMARK    3  A    between atoms: _6  and  _8
REMARK    4  A    between atoms: _8  and  _9
REMARK    5  A    between atoms: _8  and  _11
REMARK    6  A    between atoms: _11  and  _12
REMARK    7  A    between atoms: _12  and  _13
REMARK    8  A    between atoms: _13  and  _14
REMARK    9  A    between atoms: _14  and  _15
REMARK   10  A    between atoms: _19  and  _21
REMARK   11  A    between atoms: _21  and  _22
REMARK   12  A    between atoms: _21  and  _24
REMARK   13  A    between atoms: _24  and  _25
REMARK   14  A    between atoms: _27  and  _29
REMARK   15  A    between atoms: _29  and  _30
REMARK   16  A    between atoms: _32  and  _34
REMARK   17  A    between atoms: _34  and  _35
REMARK   18  A    between atoms: _34  and  _37
REMARK   19  A    between atoms: _37  and  _38
REMARK   20  A    between atoms: _38  and  _39
REMARK   21  A    between atoms: _44  and  _46
REMARK   22  A    between atoms: _46  and  _47
REMARK   23  A    between atoms: _49  and  _51
REMARK   24  A    between atoms: _51  and  _52
REMARK   25  A    between atoms: _51  and  _54
REMARK   26  A    between atoms: _54  and  _55
REMARK   27  A    between atoms: _60  and  _61
REMARK   28  A    between atoms: _63  and  _65
REMARK   29  A    between atoms: _65  and  _66
REMARK   30  A    between atoms: _65  and  _68
REMARK   31  A    between atoms: _68  and  _69
REMARK   32  A    between atoms: _74  and  _75
REMARK   33  A    between atoms: _77  and  _79
REMARK   34  A    between atoms: _79  and  _80
REMARK   35  A    between atoms: _79  and  _82
REMARK   36  A    between atoms: _82  and  _83
REMARK   37  A    between atoms: _86  and  _88
REMARK   38  A    between atoms: _88  and  _89
REMARK   39  A    between atoms: _88  and  _91
REMARK   40  A    between atoms: _94  and  _96
REMARK   41  A    between atoms: _96  and  _97
REMARK   42  A    between atoms: _96  and  _99
REMARK   43  A    between atoms: _99  and  _100
REMARK   44  A    between atoms: _103  and  _105
REMARK   45  A    between atoms: _105  and  _106
REMARK   46  A    between atoms: _105  and  _108
REMARK   47  A    between atoms: _108  and  _109
REMARK   48  A    between atoms: _112  and  _114
REMARK   49  A    between atoms: _114  and  _115
REMARK   50  A    between atoms: _117  and  _119
REMARK   51  A    between atoms: _119  and  _120
REMARK   52  A    between atoms: _119  and  _122
REMARK   53  A    between atoms: _122  and  _123
REMARK   54  A    between atoms: _125  and  _127
REMARK   55  A    between atoms: _127  and  _128
REMARK   56  A    between atoms: _127  and  _130
REMARK   57  A    between atoms: _130  and  _131
REMARK   58  A    between atoms: _133  and  _135
REMARK   59  A    between atoms: _135  and  _136
REMARK   60  A    between atoms: _135  and  _138
REMARK   61  A    between atoms: _138  and  _139
REMARK   62  A    between atoms: _144  and  _146
REMARK   63  A    between atoms: _146  and  _147
REMARK   64  A    between atoms: _146  and  _149
REMARK   65  A    between atoms: _153  and  _154
REMARK   66  A    between atoms: _159  and  _161
REMARK   67  A    between atoms: _161  and  _162
REMARK   68  A    between atoms: _161  and  _164
REMARK   69  A    between atoms: _164  and  _165
REMARK   70  A    between atoms: _170  and  _171
REMARK   71  A    between atoms: _173  and  _175
REMARK   72  A    between atoms: _175  and  _176
REMARK   73  A    between atoms: _175  and  _178
REMARK   74  A    between atoms: _178  and  _179
REMARK   75  A    between atoms: _182  and  _184
REMARK   76  A    between atoms: _184  and  _185
REMARK   77  A    between atoms: _184  and  _187
REMARK   78  A    between atoms: _187  and  _188
REMARK   79  A    between atoms: _188  and  _189
REMARK   80  A    between atoms: _194  and  _196
REMARK   81  A    between atoms: _196  and  _197
REMARK   82  A    between atoms: _199  and  _201
REMARK   83  A    between atoms: _201  and  _202
REMARK   84  A    between atoms: _201  and  _204
REMARK   85  A    between atoms: _204  and  _205
REMARK   86  A    between atoms: _205  and  _206
REMARK   87  A    between atoms: _206  and  _207
REMARK   88  A    between atoms: _207  and  _208
REMARK   89  A    between atoms: _212  and  _214
REMARK   90  A    between atoms: _214  and  _215
REMARK   91  A    between atoms: _214  and  _217
REMARK   92  A    between atoms: _217  and  _218
REMARK   93  A    between atoms: _228  and  _230
REMARK   94  A    between atoms: _230  and  _231
REMARK   95  A    between atoms: _230  and  _233
REMARK   96  A    between atoms: _233  and  _234
REMARK   97  A    between atoms: _237  and  _239
REMARK   98  A    between atoms: _239  and  _240
REMARK   99  A    between atoms: _239  and  _242
REMARK  100  A    between atoms: _242  and  _243
REMARK  101  A    between atoms: _243  and  _244
REMARK  102  A    between atoms: _244  and  _245
REMARK  103  A    between atoms: _245  and  _246
REMARK  104  A    between atoms: _250  and  _252
REMARK  105  A    between atoms: _252  and  _253
REMARK  106  A    between atoms: _252  and  _255
REMARK  107  A    between atoms: _255  and  _256
REMARK  108  A    between atoms: _262  and  _264
REMARK  109  A    between atoms: _264  and  _265
REMARK  110  A    between atoms: _264  and  _267
REMARK  111  A    between atoms: _267  and  _268
REMARK  112  A    between atoms: _274  and  _276
REMARK  113  A    between atoms: _276  and  _277
REMARK  114  A    between atoms: _276  and  _279
REMARK  115  A    between atoms: _279  and  _280
REMARK  116  A    between atoms: _283  and  _285
REMARK  117  A    between atoms: _285  and  _286
REMARK  118  A    between atoms: _285  and  _288
REMARK  119  A    between atoms: _288  and  _289
REMARK  120  A    between atoms: _291  and  _293
REMARK  121  A    between atoms: _293  and  _294
REMARK  122  A    between atoms: _293  and  _296
REMARK  123  A    between atoms: _296  and  _297
REMARK  124  A    between atoms: _307  and  _309
REMARK  125  A    between atoms: _309  and  _310
REMARK  126  A    between atoms: _312  and  _314
REMARK  127  A    between atoms: _314  and  _315
REMARK  128  A    between atoms: _314  and  _317
REMARK  129  A    between atoms: _317  and  _318
REMARK  130  A    between atoms: _321  and  _323
REMARK  131  A    between atoms: _323  and  _324
REMARK  132  A    between atoms: _323  and  _326
REMARK  133  A    between atoms: _326  and  _327
REMARK  134  A    between atoms: _330  and  _332
REMARK  135  A    between atoms: _332  and  _333
REMARK  136  A    between atoms: _335  and  _337
REMARK  137  A    between atoms: _337  and  _338
REMARK  138  A    between atoms: _337  and  _340
REMARK  139  A    between atoms: _340  and  _341
REMARK  140  A    between atoms: _344  and  _346
REMARK  141  A    between atoms: _346  and  _347
REMARK  142  A    between atoms: _350  and  _352
REMARK  143  A    between atoms: _352  and  _353
REMARK  144  A    between atoms: _352  and  _355
REMARK  145  A    between atoms: _355  and  _356
REMARK  146  A    between atoms: _361  and  _362
REMARK  147  A    between atoms: _364  and  _366
REMARK  148  A    between atoms: _366  and  _367
REMARK  149  A    between atoms: _370  and  _372
REMARK  150  A    between atoms: _372  and  _373
REMARK  151  A    between atoms: _372  and  _375
REMARK  152  A    between atoms: _375  and  _376
REMARK  153  A    between atoms: _376  and  _377
REMARK  154  A    between atoms: _380  and  _382
REMARK  155  A    between atoms: _382  and  _383
REMARK  156  A    between atoms: _382  and  _385
REMARK  157  A    between atoms: _385  and  _386
REMARK  158  A    between atoms: _389  and  _391
REMARK  159  A    between atoms: _391  and  _392
REMARK  160  A    between atoms: _395  and  _397
REMARK  161  A    between atoms: _397  and  _398
REMARK  162  A    between atoms: _397  and  _400
REMARK  163  A    between atoms: _400  and  _401
REMARK  164  A    between atoms: _401  and  _402
REMARK  165  A    between atoms: _402  and  _403
REMARK  166  A    between atoms: _412  and  _414
REMARK  167  A    between atoms: _414  and  _415
REMARK  168  A    between atoms: _414  and  _417
REMARK  169  A    between atoms: _417  and  _418
REMARK  170  A    between atoms: _421  and  _423
REMARK  171  A    between atoms: _423  and  _424
REMARK  172  A    between atoms: _426  and  _428
REMARK  173  A    between atoms: _428  and  _429
REMARK  174  A    between atoms: _428  and  _431
REMARK  175  A    between atoms: _431  and  _432
REMARK  176  A    between atoms: _442  and  _444
REMARK  177  A    between atoms: _444  and  _445
REMARK  178  A    between atoms: _444  and  _447
REMARK  179  A    between atoms: _447  and  _448
REMARK  180  A    between atoms: _453  and  _454
REMARK  181  A    between atoms: _456  and  _458
REMARK  182  A    between atoms: _458  and  _459
REMARK  183  A    between atoms: _458  and  _461
REMARK  184  A    between atoms: _461  and  _462
REMARK  185  A    between atoms: _467  and  _468
REMARK  186  A    between atoms: _470  and  _472
REMARK  187  A    between atoms: _472  and  _473
REMARK  188  A    between atoms: _472  and  _475
REMARK  189  A    between atoms: _475  and  _476
REMARK  190  A    between atoms: _476  and  _477
REMARK  191  A    between atoms: _477  and  _478
REMARK  192  A    between atoms: _478  and  _479
REMARK  193  A    between atoms: _483  and  _485
REMARK  194  A    between atoms: _485  and  _486
REMARK  195  A    between atoms: _485  and  _488
REMARK  196  A    between atoms: _488  and  _489
REMARK  197  A    between atoms: _492  and  _494
REMARK  198  A    between atoms: _494  and  _495
REMARK  199  A    between atoms: _494  and  _497
REMARK  200  A    between atoms: _500  and  _502
REMARK  201  A    between atoms: _502  and  _503
REMARK  202  A    between atoms: _502  and  _505
REMARK  203  A    between atoms: _505  and  _506
REMARK  204  A    between atoms: _509  and  _511
REMARK  205  A    between atoms: _511  and  _512
REMARK  206  A    between atoms: _511  and  _514
REMARK  207  A    between atoms: _514  and  _515
REMARK  208  A    between atoms: _517  and  _519
REMARK  209  A    between atoms: _519  and  _520
REMARK  210  A    between atoms: _522  and  _524
REMARK  211  A    between atoms: _524  and  _525
REMARK  212  A    between atoms: _524  and  _527
REMARK  213  A    between atoms: _527  and  _528
REMARK  214  A    between atoms: _531  and  _533
REMARK  215  A    between atoms: _533  and  _534
REMARK  216  A    between atoms: _533  and  _536
REMARK  217  A    between atoms: _536  and  _537
REMARK  218  A    between atoms: _540  and  _542
REMARK  219  A    between atoms: _542  and  _543
REMARK  220  A    between atoms: _542  and  _545
REMARK  221  A    between atoms: _545  and  _546
REMARK  222  A    between atoms: _551  and  _553
REMARK  223  A    between atoms: _553  and  _554
REMARK  224  A    between atoms: _553  and  _556
REMARK  225  A    between atoms: _556  and  _557
REMARK  226  A    between atoms: _560  and  _562
REMARK  227  A    between atoms: _562  and  _563
REMARK  228  A    between atoms: _562  and  _565
REMARK  229  A    between atoms: _565  and  _566
REMARK  230  A    between atoms: _566  and  _567
REMARK  231  A    between atoms: _567  and  _568
REMARK  232  A    between atoms: _577  and  _579
REMARK  233  A    between atoms: _579  and  _580
REMARK  234  A    between atoms: _579  and  _582
REMARK  235  A    between atoms: _582  and  _583
REMARK  236  A    between atoms: _586  and  _588
REMARK  237  A    between atoms: _588  and  _589
REMARK  238  A    between atoms: _588  and  _591
REMARK  239  A    between atoms: _591  and  _592
REMARK  240  A    between atoms: _595  and  _597
REMARK  241  A    between atoms: _597  and  _598
REMARK  242  A    between atoms: _600  and  _602
REMARK  243  A    between atoms: _602  and  _603
REMARK  244  A    between atoms: _602  and  _605
REMARK  245  A    between atoms: _605  and  _606
REMARK  246  A    between atoms: _606  and  _607
REMARK  247  A    between atoms: _607  and  _608
REMARK  248  A    between atoms: _617  and  _619
REMARK  249  A    between atoms: _619  and  _620
REMARK  250  A    between atoms: _619  and  _622
REMARK  251  A    between atoms: _622  and  _623
REMARK  252  A    between atoms: _629  and  _631
REMARK  253  A    between atoms: _631  and  _632
REMARK  254  A    between atoms: _635  and  _637
REMARK  255  A    between atoms: _637  and  _638
REMARK  256  A    between atoms: _637  and  _640
REMARK  257  A    between atoms: _640  and  _641
REMARK  258  A    between atoms: _644  and  _646
REMARK  259  A    between atoms: _646  and  _647
REMARK  260  A    between atoms: _646  and  _649
REMARK  261  A    between atoms: _649  and  _650
REMARK  262  A    between atoms: _652  and  _654
REMARK  263  A    between atoms: _654  and  _655
REMARK  264  A    between atoms: _654  and  _657
REMARK  265  A    between atoms: _657  and  _658
REMARK  266  A    between atoms: _658  and  _659
REMARK  267  A    between atoms: _664  and  _666
REMARK  268  A    between atoms: _666  and  _667
REMARK  269  A    between atoms: _666  and  _669
REMARK  270  A    between atoms: _669  and  _670
REMARK  271  A    between atoms: _672  and  _674
REMARK  272  A    between atoms: _674  and  _675
REMARK  273  A    between atoms: _674  and  _677
REMARK  274  A    between atoms: _677  and  _678
REMARK  275  A    between atoms: _680  and  _682
REMARK  276  A    between atoms: _682  and  _683
REMARK  277  A    between atoms: _682  and  _685
REMARK  278  A    between atoms: _685  and  _686
REMARK  279  A    between atoms: _689  and  _691
REMARK  280  A    between atoms: _691  and  _692
REMARK  281  A    between atoms: _691  and  _694
REMARK  282  A    between atoms: _697  and  _699
REMARK  283  A    between atoms: _699  and  _700
REMARK  284  A    between atoms: _702  and  _704
REMARK  285  A    between atoms: _704  and  _705
REMARK  286  A    between atoms: _708  and  _710
REMARK  287  A    between atoms: _710  and  _711
REMARK  288  A    between atoms: _710  and  _713
REMARK  289  A    between atoms: _716  and  _718
REMARK  290  A    between atoms: _718  and  _719
REMARK  291  A    between atoms: _718  and  _721
REMARK  292  A    between atoms: _721  and  _722
REMARK  293  A    between atoms: _722  and  _723
REMARK  294  A    between atoms: _725  and  _727
REMARK  295  A    between atoms: _727  and  _728
REMARK  296  A    between atoms: _727  and  _730
REMARK  297  A    between atoms: _730  and  _731
REMARK  298  A    between atoms: _731  and  _732
REMARK                            x       y       z     vdW  Elec       q    Type
REMARK                         _______ _______ _______ _____ _____    ______ ____
ROOT
ATOM      1  O   HOH     1      -1.192  -9.786  28.589  0.00  0.00    +0.000 OA
ENDROOT
TORSDOF 0
REMARK  Name = ../refined-set-2016/2vkm/2vkm_pocket.pdb
REMARK  298 active torsions:
REMARK  status: ('A' for Active; 'I' for Inactive)
REMARK    1  A    between atoms: _1  and  _3
REMARK    2  A    between atoms: _3  and  _4
REMARK    3  A    between atoms: _6  and  _8
REMARK    4  A    between atoms: _8  and  _9
REMARK    5  A    between atoms: _8  and  _11
REMARK    6  A    between atoms: _11  and  _12
REMARK    7  A    between atoms: _12  and  _13
REMARK    8  A    between atoms: _13  and  _14
REMARK    9  A    between atoms: _14  and  _15
REMARK   10  A    between atoms: _19  and  _21
REMARK   11  A    between atoms: _21  and  _22
REMARK   12  A    between atoms: _21  and  _24
REMARK   13  A    between atoms: _24  and  _25
REMARK   14  A    between atoms: _27  and  _29
REMARK   15  A    between atoms: _29  and  _30
REMARK   16  A    between atoms: _32  and  _34
REMARK   17  A    between atoms: _34  and  _35
REMARK   18  A    between atoms: _34  and  _37
REMARK   19  A    between atoms: _37  and  _38
REMARK   20  A    between atoms: _38  and  _39
REMARK   21  A    between atoms: _44  and  _46
REMARK   22  A    between atoms: _46  and  _47
REMARK   23  A    between atoms: _49  and  _51
REMARK   24  A    between atoms: _51  and  _52
REMARK   25  A    between atoms: _51  and  _54
REMARK   26  A    between atoms: _54  and  _55
REMARK   27  A    between atoms: _60  and  _61
REMARK   28  A    between atoms: _63  and  _65
REMARK   29  A    between atoms: _65  and  _66
REMARK   30  A    between atoms: _65  and  _68
REMARK   31  A    between atoms: _68  and  _69
REMARK   32  A    between atoms: _74  and  _75
REMARK   33  A    between atoms: _77  and  _79
REMARK   34  A    between atoms: _79  and  _80
REMARK   35  A    between atoms: _79  and  _82
REMARK   36  A    between atoms: _82  and  _83
REMARK   37  A    between atoms: _86  and  _88
REMARK   38  A    between atoms: _88  and  _89
REMARK   39  A    between atoms: _88  and  _91
REMARK   40  A    between atoms: _94  and  _96
REMARK   41  A    between atoms: _96  and  _97
REMARK   42  A    between atoms: _96  and  _99
REMARK   43  A    between atoms: _99  and  _100
REMARK   44  A    between atoms: _103  and  _105
REMARK   45  A    between atoms: _105  and  _106
REMARK   46  A    between atoms: _105  and  _108
REMARK   47  A    between atoms: _108  and  _109
REMARK   48  A    between atoms: _112  and  _114
REMARK   49  A    between atoms: _114  and  _115
REMARK   50  A    between atoms: _117  and  _119
REMARK   51  A    between atoms: _119  and  _120
REMARK   52  A    between atoms: _119  and  _122
REMARK   53  A    between atoms: _122  and  _123
REMARK   54  A    between atoms: _125  and  _127
REMARK   55  A    between atoms: _127  and  _128
REMARK   56  A    between atoms: _127  and  _130
REMARK   57  A    between atoms: _130  and  _131
REMARK   58  A    between atoms: _133  and  _135
REMARK   59  A    between atoms: _135  and  _136
REMARK   60  A    between atoms: _135  and  _138
REMARK   61  A    between atoms: _138  and  _139
REMARK   62  A    between atoms: _144  and  _146
REMARK   63  A    between atoms: _146  and  _147
REMARK   64  A    between atoms: _146  and  _149
REMARK   65  A    between atoms: _153  and  _154
REMARK   66  A    between atoms: _159  and  _161
REMARK   67  A    between atoms: _161  and  _162
REMARK   68  A    between atoms: _161  and  _164
REMARK   69  A    between atoms: _164  and  _165
REMARK   70  A    between atoms: _170  and  _171
REMARK   71  A    between atoms: _173  and  _175
REMARK   72  A    between atoms: _175  and  _176
REMARK   73  A    between atoms: _175  and  _178
REMARK   74  A    between atoms: _178  and  _179
REMARK   75  A    between atoms: _182  and  _184
REMARK   76  A    between atoms: _184  and  _185
REMARK   77  A    between atoms: _184  and  _187
REMARK   78  A    between atoms: _187  and  _188
REMARK   79  A    between atoms: _188  and  _189
REMARK   80  A    between atoms: _194  and  _196
REMARK   81  A    between atoms: _196  and  _197
REMARK   82  A    between atoms: _199  and  _201
REMARK   83  A    between atoms: _201  and  _202
REMARK   84  A    between atoms: _201  and  _204
REMARK   85  A    between atoms: _204  and  _205
REMARK   86  A    between atoms: _205  and  _206
REMARK   87  A    between atoms: _206  and  _207
REMARK   88  A    between atoms: _207  and  _208
REMARK   89  A    between atoms: _212  and  _214
REMARK   90  A    between atoms: _214  and  _215
REMARK   91  A    between atoms: _214  and  _217
REMARK   92  A    between atoms: _217  and  _218
REMARK   93  A    between atoms: _228  and  _230
REMARK   94  A    between atoms: _230  and  _231
REMARK   95  A    between atoms: _230  and  _233
REMARK   96  A    between atoms: _233  and  _234
REMARK   97  A    between atoms: _237  and  _239
REMARK   98  A    between atoms: _239  and  _240
REMARK   99  A    between atoms: _239  and  _242
REMARK  100  A    between atoms: _242  and  _243
REMARK  101  A    between atoms: _243  and  _244
REMARK  102  A    between atoms: _244  and  _245
REMARK  103  A    between atoms: _245  and  _246
REMARK  104  A    between atoms: _250  and  _252
REMARK  105  A    between atoms: _252  and  _253
REMARK  106  A    between atoms: _252  and  _255
REMARK  107  A    between atoms: _255  and  _256
REMARK  108  A    between atoms: _262  and  _264
REMARK  109  A    between atoms: _264  and  _265
REMARK  110  A    between atoms: _264  and  _267
REMARK  111  A    between atoms: _267  and  _268
REMARK  112  A    between atoms: _274  and  _276
REMARK  113  A    between atoms: _276  and  _277
REMARK  114  A    between atoms: _276  and  _279
REMARK  115  A    between atoms: _279  and  _280
REMARK  116  A    between atoms: _283  and  _285
REMARK  117  A    between atoms: _285  and  _286
REMARK  118  A    between atoms: _285  and  _288
REMARK  119  A    between atoms: _288  and  _289
REMARK  120  A    between atoms: _291  and  _293
REMARK  121  A    between atoms: _293  and  _294
REMARK  122  A    between atoms: _293  and  _296
REMARK  123  A    between atoms: _296  and  _297
REMARK  124  A    between atoms: _307  and  _309
REMARK  125  A    between atoms: _309  and  _310
REMARK  126  A    between atoms: _312  and  _314
REMARK  127  A    between atoms: _314  and  _315
REMARK  128  A    between atoms: _314  and  _317
REMARK  129  A    between atoms: _317  and  _318
REMARK  130  A    between atoms: _321  and  _323
REMARK  131  A    between atoms: _323  and  _324
REMARK  132  A    between atoms: _323  and  _326
REMARK  133  A    between atoms: _326  and  _327
REMARK  134  A    between atoms: _330  and  _332
REMARK  135  A    between atoms: _332  and  _333
REMARK  136  A    between atoms: _335  and  _337
REMARK  137  A    between atoms: _337  and  _338
REMARK  138  A    between atoms: _337  and  _340
REMARK  139  A    between atoms: _340  and  _341
REMARK  140  A    between atoms: _344  and  _346
REMARK  141  A    between atoms: _346  and  _347
REMARK  142  A    between atoms: _350  and  _352
REMARK  143  A    between atoms: _352  and  _353
REMARK  144  A    between atoms: _352  and  _355
REMARK  145  A    between atoms: _355  and  _356
REMARK  146  A    between atoms: _361  and  _362
REMARK  147  A    between atoms: _364  and  _366
REMARK  148  A    between atoms: _366  and  _367
REMARK  149  A    between atoms: _370  and  _372
REMARK  150  A    between atoms: _372  and  _373
REMARK  151  A    between atoms: _372  and  _375
REMARK  152  A    between atoms: _375  and  _376
REMARK  153  A    between atoms: _376  and  _377
REMARK  154  A    between atoms: _380  and  _382
REMARK  155  A    between atoms: _382  and  _383
REMARK  156  A    between atoms: _382  and  _385
REMARK  157  A    between atoms: _385  and  _386
REMARK  158  A    between atoms: _389  and  _391
REMARK  159  A    between atoms: _391  and  _392
REMARK  160  A    between atoms: _395  and  _397
REMARK  161  A    between atoms: _397  and  _398
REMARK  162  A    between atoms: _397  and  _400
REMARK  163  A    between atoms: _400  and  _401
REMARK  164  A    between atoms: _401  and  _402
REMARK  165  A    between atoms: _402  and  _403
REMARK  166  A    between atoms: _412  and  _414
REMARK  167  A    between atoms: _414  and  _415
REMARK  168  A    between atoms: _414  and  _417
REMARK  169  A    between atoms: _417  and  _418
REMARK  170  A    between atoms: _421  and  _423
REMARK  171  A    between atoms: _423  and  _424
REMARK  172  A    between atoms: _426  and  _428
REMARK  173  A    between atoms: _428  and  _429
REMARK  174  A    between atoms: _428  and  _431
REMARK  175  A    between atoms: _431  and  _432
REMARK  176  A    between atoms: _442  and  _444
REMARK  177  A    between atoms: _444  and  _445
REMARK  178  A    between atoms: _444  and  _447
REMARK  179  A    between atoms: _447  and  _448
REMARK  180  A    between atoms: _453  and  _454
REMARK  181  A    between atoms: _456  and  _458
REMARK  182  A    between atoms: _458  and  _459
REMARK  183  A    between atoms: _458  and  _461
REMARK  184  A    between atoms: _461  and  _462
REMARK  185  A    between atoms: _467  and  _468
REMARK  186  A    between atoms: _470  and  _472
REMARK  187  A    between atoms: _472  and  _473
REMARK  188  A    between atoms: _472  and  _475
REMARK  189  A    between atoms: _475  and  _476
REMARK  190  A    between atoms: _476  and  _477
REMARK  191  A    between atoms: _477  and  _478
REMARK  192  A    between atoms: _478  and  _479
REMARK  193  A    between atoms: _483  and  _485
REMARK  194  A    between atoms: _485  and  _486
REMARK  195  A    between atoms: _485  and  _488
REMARK  196  A    between atoms: _488  and  _489
REMARK  197  A    between atoms: _492  and  _494
REMARK  198  A    between atoms: _494  and  _495
REMARK  199  A    between atoms: _494  and  _497
REMARK  200  A    between atoms: _500  and  _502
REMARK  201  A    between atoms: _502  and  _503
REMARK  202  A    between atoms: _502  and  _505
REMARK  203  A    between atoms: _505  and  _506
REMARK  204  A    between atoms: _509  and  _511
REMARK  205  A    between atoms: _511  and  _512
REMARK  206  A    between atoms: _511  and  _514
REMARK  207  A    between atoms: _514  and  _515
REMARK  208  A    between atoms: _517  and  _519
REMARK  209  A    between atoms: _519  and  _520
REMARK  210  A    between atoms: _522  and  _524
REMARK  211  A    between atoms: _524  and  _525
REMARK  212  A    between atoms: _524  and  _527
REMARK  213  A    between atoms: _527  and  _528
REMARK  214  A    between atoms: _531  and  _533
REMARK  215  A    between atoms: _533  and  _534
REMARK  216  A    between atoms: _533  and  _536
REMARK  217  A    between atoms: _536  and  _537
REMARK  218  A    between atoms: _540  and  _542
REMARK  219  A    between atoms: _542  and  _543
REMARK  220  A    between atoms: _542  and  _545
REMARK  221  A    between atoms: _545  and  _546
REMARK  222  A    between atoms: _551  and  _553
REMARK  223  A    between atoms: _553  and  _554
REMARK  224  A    between atoms: _553  and  _556
REMARK  225  A    between atoms: _556  and  _557
REMARK  226  A    between atoms: _560  and  _562
REMARK  227  A    between atoms: _562  and  _563
REMARK  228  A    between atoms: _562  and  _565
REMARK  229  A    between atoms: _565  and  _566
REMARK  230  A    between atoms: _566  and  _567
REMARK  231  A    between atoms: _567  and  _568
REMARK  232  A    between atoms: _577  and  _579
REMARK  233  A    between atoms: _579  and  _580
REMARK  234  A    between atoms: _579  and  _582
REMARK  235  A    between atoms: _582  and  _583
REMARK  236  A    between atoms: _586  and  _588
REMARK  237  A    between atoms: _588  and  _589
REMARK  238  A    between atoms: _588  and  _591
REMARK  239  A    between atoms: _591  and  _592
REMARK  240  A    between atoms: _595  and  _597
REMARK  241  A    between atoms: _597  and  _598
REMARK  242  A    between atoms: _600  and  _602
REMARK  243  A    between atoms: _602  and  _603
REMARK  244  A    between atoms: _602  and  _605
REMARK  245  A    between atoms: _605  and  _606
REMARK  246  A    between atoms: _606  and  _607
REMARK  247  A    between atoms: _607  and  _608
REMARK  248  A    between atoms: _617  and  _619
REMARK  249  A    between atoms: _619  and  _620
REMARK  250  A    between atoms: _619  and  _622
REMARK  251  A    between atoms: _622  and  _623
REMARK  252  A    between atoms: _629  and  _631
REMARK  253  A    between atoms: _631  and  _632
REMARK  254  A    between atoms: _635  and  _637
REMARK  255  A    between atoms: _637  and  _638
REMARK  256  A    between atoms: _637  and  _640
REMARK  257  A    between atoms: _640  and  _641
REMARK  258  A    between atoms: _644  and  _646
REMARK  259  A    between atoms: _646  and  _647
REMARK  260  A    between atoms: _646  and  _649
REMARK  261  A    between atoms: _649  and  _650
REMARK  262  A    between atoms: _652  and  _654
REMARK  263  A    between atoms: _654  and  _655
REMARK  264  A    between atoms: _654  and  _657
REMARK  265  A    between atoms: _657  and  _658
REMARK  266  A    between atoms: _658  and  _659
REMARK  267  A    between atoms: _664  and  _666
REMARK  268  A    between atoms: _666  and  _667
REMARK  269  A    between atoms: _666  and  _669
REMARK  270  A    between atoms: _669  and  _670
REMARK  271  A    between atoms: _672  and  _674
REMARK  272  A    between atoms: _674  and  _675
REMARK  273  A    between atoms: _674  and  _677
REMARK  274  A    between atoms: _677  and  _678
REMARK  275  A    between atoms: _680  and  _682
REMARK  276  A    between atoms: _682  and  _683
REMARK  277  A    between atoms: _682  and  _685
REMARK  278  A    between atoms: _685  and  _686
REMARK  279  A    between atoms: _689  and  _691
REMARK  280  A    between atoms: _691  and  _692
REMARK  281  A    between atoms: _691  and  _694
REMARK  282  A    between atoms: _697  and  _699
REMARK  283  A    between atoms: _699  and  _700
REMARK  284  A    between atoms: _702  and  _704
REMARK  285  A    between atoms: _704  and  _705
REMARK  286  A    between atoms: _708  and  _710
REMARK  287  A    between atoms: _710  and  _711
REMARK  288  A    between atoms: _710  and  _713
REMARK  289  A    between atoms: _716  and  _718
REMARK  290  A    between atoms: _718  and  _719
REMARK  291  A    between atoms: _718  and  _721
REMARK  292  A    between atoms: _721  and  _722
REMARK  293  A    between atoms: _722  and  _723
REMARK  294  A    between atoms: _725  and  _727
REMARK  295  A    between atoms: _727  and  _728
REMARK  296  A    between atoms: _727  and  _730
REMARK  297  A    between atoms: _730  and  _731
REMARK  298  A    between atoms: _731  and  _732
REMARK                            x       y       z     vdW  Elec       q    Type
REMARK                         _______ _______ _______ _____ _____    ______ ____
ROOT
ATOM      1  O   HOH     1      -4.043 -15.510  28.199  0.00  0.00    +0.000 OA
ENDROOT
TORSDOF 0
REMARK  Name = ../refined-set-2016/2vkm/2vkm_pocket.pdb
REMARK  298 active torsions:
REMARK  status: ('A' for Active; 'I' for Inactive)
REMARK    1  A    between atoms: _1  and  _3
REMARK    2  A    between atoms: _3  and  _4
REMARK    3  A    between atoms: _6  and  _8
REMARK    4  A    between atoms: _8  and  _9
REMARK    5  A    between atoms: _8  and  _11
REMARK    6  A    between atoms: _11  and  _12
REMARK    7  A    between atoms: _12  and  _13
REMARK    8  A    between atoms: _13  and  _14
REMARK    9  A    between atoms: _14  and  _15
REMARK   10  A    between atoms: _19  and  _21
REMARK   11  A    between atoms: _21  and  _22
REMARK   12  A    between atoms: _21  and  _24
REMARK   13  A    between atoms: _24  and  _25
REMARK   14  A    between atoms: _27  and  _29
REMARK   15  A    between atoms: _29  and  _30
REMARK   16  A    between atoms: _32  and  _34
REMARK   17  A    between atoms: _34  and  _35
REMARK   18  A    between atoms: _34  and  _37
REMARK   19  A    between atoms: _37  and  _38
REMARK   20  A    between atoms: _38  and  _39
REMARK   21  A    between atoms: _44  and  _46
REMARK   22  A    between atoms: _46  and  _47
REMARK   23  A    between atoms: _49  and  _51
REMARK   24  A    between atoms: _51  and  _52
REMARK   25  A    between atoms: _51  and  _54
REMARK   26  A    between atoms: _54  and  _55
REMARK   27  A    between atoms: _60  and  _61
REMARK   28  A    between atoms: _63  and  _65
REMARK   29  A    between atoms: _65  and  _66
REMARK   30  A    between atoms: _65  and  _68
REMARK   31  A    between atoms: _68  and  _69
REMARK   32  A    between atoms: _74  and  _75
REMARK   33  A    between atoms: _77  and  _79
REMARK   34  A    between atoms: _79  and  _80
REMARK   35  A    between atoms: _79  and  _82
REMARK   36  A    between atoms: _82  and  _83
REMARK   37  A    between atoms: _86  and  _88
REMARK   38  A    between atoms: _88  and  _89
REMARK   39  A    between atoms: _88  and  _91
REMARK   40  A    between atoms: _94  and  _96
REMARK   41  A    between atoms: _96  and  _97
REMARK   42  A    between atoms: _96  and  _99
REMARK   43  A    between atoms: _99  and  _100
REMARK   44  A    between atoms: _103  and  _105
REMARK   45  A    between atoms: _105  and  _106
REMARK   46  A    between atoms: _105  and  _108
REMARK   47  A    between atoms: _108  and  _109
REMARK   48  A    between atoms: _112  and  _114
REMARK   49  A    between atoms: _114  and  _115
REMARK   50  A    between atoms: _117  and  _119
REMARK   51  A    between atoms: _119  and  _120
REMARK   52  A    between atoms: _119  and  _122
REMARK   53  A    between atoms: _122  and  _123
REMARK   54  A    between atoms: _125  and  _127
REMARK   55  A    between atoms: _127  and  _128
REMARK   56  A    between atoms: _127  and  _130
REMARK   57  A    between atoms: _130  and  _131
REMARK   58  A    between atoms: _133  and  _135
REMARK   59  A    between atoms: _135  and  _136
REMARK   60  A    between atoms: _135  and  _138
REMARK   61  A    between atoms: _138  and  _139
REMARK   62  A    between atoms: _144  and  _146
REMARK   63  A    between atoms: _146  and  _147
REMARK   64  A    between atoms: _146  and  _149
REMARK   65  A    between atoms: _153  and  _154
REMARK   66  A    between atoms: _159  and  _161
REMARK   67  A    between atoms: _161  and  _162
REMARK   68  A    between atoms: _161  and  _164
REMARK   69  A    between atoms: _164  and  _165
REMARK   70  A    between atoms: _170  and  _171
REMARK   71  A    between atoms: _173  and  _175
REMARK   72  A    between atoms: _175  and  _176
REMARK   73  A    between atoms: _175  and  _178
REMARK   74  A    between atoms: _178  and  _179
REMARK   75  A    between atoms: _182  and  _184
REMARK   76  A    between atoms: _184  and  _185
REMARK   77  A    between atoms: _184  and  _187
REMARK   78  A    between atoms: _187  and  _188
REMARK   79  A    between atoms: _188  and  _189
REMARK   80  A    between atoms: _194  and  _196
REMARK   81  A    between atoms: _196  and  _197
REMARK   82  A    between atoms: _199  and  _201
REMARK   83  A    between atoms: _201  and  _202
REMARK   84  A    between atoms: _201  and  _204
REMARK   85  A    between atoms: _204  and  _205
REMARK   86  A    between atoms: _205  and  _206
REMARK   87  A    between atoms: _206  and  _207
REMARK   88  A    between atoms: _207  and  _208
REMARK   89  A    between atoms: _212  and  _214
REMARK   90  A    between atoms: _214  and  _215
REMARK   91  A    between atoms: _214  and  _217
REMARK   92  A    between atoms: _217  and  _218
REMARK   93  A    between atoms: _228  and  _230
REMARK   94  A    between atoms: _230  and  _231
REMARK   95  A    between atoms: _230  and  _233
REMARK   96  A    between atoms: _233  and  _234
REMARK   97  A    between atoms: _237  and  _239
REMARK   98  A    between atoms: _239  and  _240
REMARK   99  A    between atoms: _239  and  _242
REMARK  100  A    between atoms: _242  and  _243
REMARK  101  A    between atoms: _243  and  _244
REMARK  102  A    between atoms: _244  and  _245
REMARK  103  A    between atoms: _245  and  _246
REMARK  104  A    between atoms: _250  and  _252
REMARK  105  A    between atoms: _252  and  _253
REMARK  106  A    between atoms: _252  and  _255
REMARK  107  A    between atoms: _255  and  _256
REMARK  108  A    between atoms: _262  and  _264
REMARK  109  A    between atoms: _264  and  _265
REMARK  110  A    between atoms: _264  and  _267
REMARK  111  A    between atoms: _267  and  _268
REMARK  112  A    between atoms: _274  and  _276
REMARK  113  A    between atoms: _276  and  _277
REMARK  114  A    between atoms: _276  and  _279
REMARK  115  A    between atoms: _279  and  _280
REMARK  116  A    between atoms: _283  and  _285
REMARK  117  A    between atoms: _285  and  _286
REMARK  118  A    between atoms: _285  and  _288
REMARK  119  A    between atoms: _288  and  _289
REMARK  120  A    between atoms: _291  and  _293
REMARK  121  A    between atoms: _293  and  _294
REMARK  122  A    between atoms: _293  and  _296
REMARK  123  A    between atoms: _296  and  _297
REMARK  124  A    between atoms: _307  and  _309
REMARK  125  A    between atoms: _309  and  _310
REMARK  126  A    between atoms: _312  and  _314
REMARK  127  A    between atoms: _314  and  _315
REMARK  128  A    between atoms: _314  and  _317
REMARK  129  A    between atoms: _317  and  _318
REMARK  130  A    between atoms: _321  and  _323
REMARK  131  A    between atoms: _323  and  _324
REMARK  132  A    between atoms: _323  and  _326
REMARK  133  A    between atoms: _326  and  _327
REMARK  134  A    between atoms: _330  and  _332
REMARK  135  A    between atoms: _332  and  _333
REMARK  136  A    between atoms: _335  and  _337
REMARK  137  A    between atoms: _337  and  _338
REMARK  138  A    between atoms: _337  and  _340
REMARK  139  A    between atoms: _340  and  _341
REMARK  140  A    between atoms: _344  and  _346
REMARK  141  A    between atoms: _346  and  _347
REMARK  142  A    between atoms: _350  and  _352
REMARK  143  A    between atoms: _352  and  _353
REMARK  144  A    between atoms: _352  and  _355
REMARK  145  A    between atoms: _355  and  _356
REMARK  146  A    between atoms: _361  and  _362
REMARK  147  A    between atoms: _364  and  _366
REMARK  148  A    between atoms: _366  and  _367
REMARK  149  A    between atoms: _370  and  _372
REMARK  150  A    between atoms: _372  and  _373
REMARK  151  A    between atoms: _372  and  _375
REMARK  152  A    between atoms: _375  and  _376
REMARK  153  A    between atoms: _376  and  _377
REMARK  154  A    between atoms: _380  and  _382
REMARK  155  A    between atoms: _382  and  _383
REMARK  156  A    between atoms: _382  and  _385
REMARK  157  A    between atoms: _385  and  _386
REMARK  158  A    between atoms: _389  and  _391
REMARK  159  A    between atoms: _391  and  _392
REMARK  160  A    between atoms: _395  and  _397
REMARK  161  A    between atoms: _397  and  _398
REMARK  162  A    between atoms: _397  and  _400
REMARK  163  A    between atoms: _400  and  _401
REMARK  164  A    between atoms: _401  and  _402
REMARK  165  A    between atoms: _402  and  _403
REMARK  166  A    between atoms: _412  and  _414
REMARK  167  A    between atoms: _414  and  _415
REMARK  168  A    between atoms: _414  and  _417
REMARK  169  A    between atoms: _417  and  _418
REMARK  170  A    between atoms: _421  and  _423
REMARK  171  A    between atoms: _423  and  _424
REMARK  172  A    between atoms: _426  and  _428
REMARK  173  A    between atoms: _428  and  _429
REMARK  174  A    between atoms: _428  and  _431
REMARK  175  A    between atoms: _431  and  _432
REMARK  176  A    between atoms: _442  and  _444
REMARK  177  A    between atoms: _444  and  _445
REMARK  178  A    between atoms: _444  and  _447
REMARK  179  A    between atoms: _447  and  _448
REMARK  180  A    between atoms: _453  and  _454
REMARK  181  A    between atoms: _456  and  _458
REMARK  182  A    between atoms: _458  and  _459
REMARK  183  A    between atoms: _458  and  _461
REMARK  184  A    between atoms: _461  and  _462
REMARK  185  A    between atoms: _467  and  _468
REMARK  186  A    between atoms: _470  and  _472
REMARK  187  A    between atoms: _472  and  _473
REMARK  188  A    between atoms: _472  and  _475
REMARK  189  A    between atoms: _475  and  _476
REMARK  190  A    between atoms: _476  and  _477
REMARK  191  A    between atoms: _477  and  _478
REMARK  192  A    between atoms: _478  and  _479
REMARK  193  A    between atoms: _483  and  _485
REMARK  194  A    between atoms: _485  and  _486
REMARK  195  A    between atoms: _485  and  _488
REMARK  196  A    between atoms: _488  and  _489
REMARK  197  A    between atoms: _492  and  _494
REMARK  198  A    between atoms: _494  and  _495
REMARK  199  A    between atoms: _494  and  _497
REMARK  200  A    between atoms: _500  and  _502
REMARK  201  A    between atoms: _502  and  _503
REMARK  202  A    between atoms: _502  and  _505
REMARK  203  A    between atoms: _505  and  _506
REMARK  204  A    between atoms: _509  and  _511
REMARK  205  A    between atoms: _511  and  _512
REMARK  206  A    between atoms: _511  and  _514
REMARK  207  A    between atoms: _514  and  _515
REMARK  208  A    between atoms: _517  and  _519
REMARK  209  A    between atoms: _519  and  _520
REMARK  210  A    between atoms: _522  and  _524
REMARK  211  A    between atoms: _524  and  _525
REMARK  212  A    between atoms: _524  and  _527
REMARK  213  A    between atoms: _527  and  _528
REMARK  214  A    between atoms: _531  and  _533
REMARK  215  A    between atoms: _533  and  _534
REMARK  216  A    between atoms: _533  and  _536
REMARK  217  A    between atoms: _536  and  _537
REMARK  218  A    between atoms: _540  and  _542
REMARK  219  A    between atoms: _542  and  _543
REMARK  220  A    between atoms: _542  and  _545
REMARK  221  A    between atoms: _545  and  _546
REMARK  222  A    between atoms: _551  and  _553
REMARK  223  A    between atoms: _553  and  _554
REMARK  224  A    between atoms: _553  and  _556
REMARK  225  A    between atoms: _556  and  _557
REMARK  226  A    between atoms: _560  and  _562
REMARK  227  A    between atoms: _562  and  _563
REMARK  228  A    between atoms: _562  and  _565
REMARK  229  A    between atoms: _565  and  _566
REMARK  230  A    between atoms: _566  and  _567
REMARK  231  A    between atoms: _567  and  _568
REMARK  232  A    between atoms: _577  and  _579
REMARK  233  A    between atoms: _579  and  _580
REMARK  234  A    between atoms: _579  and  _582
REMARK  235  A    between atoms: _582  and  _583
REMARK  236  A    between atoms: _586  and  _588
REMARK  237  A    between atoms: _588  and  _589
REMARK  238  A    between atoms: _588  and  _591
REMARK  239  A    between atoms: _591  and  _592
REMARK  240  A    between atoms: _595  and  _597
REMARK  241  A    between atoms: _597  and  _598
REMARK  242  A    between atoms: _600  and  _602
REMARK  243  A    between atoms: _602  and  _603
REMARK  244  A    between atoms: _602  and  _605
REMARK  245  A    between atoms: _605  and  _606
REMARK  246  A    between atoms: _606  and  _607
REMARK  247  A    between atoms: _607  and  _608
REMARK  248  A    between atoms: _617  and  _619
REMARK  249  A    between atoms: _619  and  _620
REMARK  250  A    between atoms: _619  and  _622
REMARK  251  A    between atoms: _622  and  _623
REMARK  252  A    between atoms: _629  and  _631
REMARK  253  A    between atoms: _631  and  _632
REMARK  254  A    between atoms: _635  and  _637
REMARK  255  A    between atoms: _637  and  _638
REMARK  256  A    between atoms: _637  and  _640
REMARK  257  A    between atoms: _640  and  _641
REMARK  258  A    between atoms: _644  and  _646
REMARK  259  A    between atoms: _646  and  _647
REMARK  260  A    between atoms: _646  and  _649
REMARK  261  A    between atoms: _649  and  _650
REMARK  262  A    between atoms: _652  and  _654
REMARK  263  A    between atoms: _654  and  _655
REMARK  264  A    between atoms: _654  and  _657
REMARK  265  A    between atoms: _657  and  _658
REMARK  266  A    between atoms: _658  and  _659
REMARK  267  A    between atoms: _664  and  _666
REMARK  268  A    between atoms: _666  and  _667
REMARK  269  A    between atoms: _666  and  _669
REMARK  270  A    between atoms: _669  and  _670
REMARK  271  A    between atoms: _672  and  _674
REMARK  272  A    between atoms: _674  and  _675
REMARK  273  A    between atoms: _674  and  _677
REMARK  274  A    between atoms: _677  and  _678
REMARK  275  A    between atoms: _680  and  _682
REMARK  276  A    between atoms: _682  and  _683
REMARK  277  A    between atoms: _682  and  _685
REMARK  278  A    between atoms: _685  and  _686
REMARK  279  A    between atoms: _689  and  _691
REMARK  280  A    between atoms: _691  and  _692
REMARK  281  A    between atoms: _691  and  _694
REMARK  282  A    between atoms: _697  and  _699
REMARK  283  A    between atoms: _699  and  _700
REMARK  284  A    between atoms: _702  and  _704
REMARK  285  A    between atoms: _704  and  _705
REMARK  286  A    between atoms: _708  and  _710
REMARK  287  A    between atoms: _710  and  _711
REMARK  288  A    between atoms: _710  and  _713
REMARK  289  A    between atoms: _716  and  _718
REMARK  290  A    between atoms: _718  and  _719
REMARK  291  A    between atoms: _718  and  _721
REMARK  292  A    between atoms: _721  and  _722
REMARK  293  A    between atoms: _722  and  _723
REMARK  294  A    between atoms: _725  and  _727
REMARK  295  A    between atoms: _727  and  _728
REMARK  296  A    between atoms: _727  and  _730
REMARK  297  A    between atoms: _730  and  _731
REMARK  298  A    between atoms: _731  and  _732
REMARK                            x       y       z     vdW  Elec       q    Type
REMARK                         _______ _______ _______ _____ _____    ______ ____
ROOT
ATOM      1  O   HOH     1       0.889 -13.165  26.411  0.00  0.00    +0.000 OA
ENDROOT
TORSDOF 0
REMARK  Name = ../refined-set-2016/2vkm/2vkm_pocket.pdb
REMARK  298 active torsions:
REMARK  status: ('A' for Active; 'I' for Inactive)
REMARK    1  A    between atoms: _1  and  _3
REMARK    2  A    between atoms: _3  and  _4
REMARK    3  A    between atoms: _6  and  _8
REMARK    4  A    between atoms: _8  and  _9
REMARK    5  A    between atoms: _8  and  _11
REMARK    6  A    between atoms: _11  and  _12
REMARK    7  A    between atoms: _12  and  _13
REMARK    8  A    between atoms: _13  and  _14
REMARK    9  A    between atoms: _14  and  _15
REMARK   10  A    between atoms: _19  and  _21
REMARK   11  A    between atoms: _21  and  _22
REMARK   12  A    between atoms: _21  and  _24
REMARK   13  A    between atoms: _24  and  _25
REMARK   14  A    between atoms: _27  and  _29
REMARK   15  A    between atoms: _29  and  _30
REMARK   16  A    between atoms: _32  and  _34
REMARK   17  A    between atoms: _34  and  _35
REMARK   18  A    between atoms: _34  and  _37
REMARK   19  A    between atoms: _37  and  _38
REMARK   20  A    between atoms: _38  and  _39
REMARK   21  A    between atoms: _44  and  _46
REMARK   22  A    between atoms: _46  and  _47
REMARK   23  A    between atoms: _49  and  _51
REMARK   24  A    between atoms: _51  and  _52
REMARK   25  A    between atoms: _51  and  _54
REMARK   26  A    between atoms: _54  and  _55
REMARK   27  A    between atoms: _60  and  _61
REMARK   28  A    between atoms: _63  and  _65
REMARK   29  A    between atoms: _65  and  _66
REMARK   30  A    between atoms: _65  and  _68
REMARK   31  A    between atoms: _68  and  _69
REMARK   32  A    between atoms: _74  and  _75
REMARK   33  A    between atoms: _77  and  _79
REMARK   34  A    between atoms: _79  and  _80
REMARK   35  A    between atoms: _79  and  _82
REMARK   36  A    between atoms: _82  and  _83
REMARK   37  A    between atoms: _86  and  _88
REMARK   38  A    between atoms: _88  and  _89
REMARK   39  A    between atoms: _88  and  _91
REMARK   40  A    between atoms: _94  and  _96
REMARK   41  A    between atoms: _96  and  _97
REMARK   42  A    between atoms: _96  and  _99
REMARK   43  A    between atoms: _99  and  _100
REMARK   44  A    between atoms: _103  and  _105
REMARK   45  A    between atoms: _105  and  _106
REMARK   46  A    between atoms: _105  and  _108
REMARK   47  A    between atoms: _108  and  _109
REMARK   48  A    between atoms: _112  and  _114
REMARK   49  A    between atoms: _114  and  _115
REMARK   50  A    between atoms: _117  and  _119
REMARK   51  A    between atoms: _119  and  _120
REMARK   52  A    between atoms: _119  and  _122
REMARK   53  A    between atoms: _122  and  _123
REMARK   54  A    between atoms: _125  and  _127
REMARK   55  A    between atoms: _127  and  _128
REMARK   56  A    between atoms: _127  and  _130
REMARK   57  A    between atoms: _130  and  _131
REMARK   58  A    between atoms: _133  and  _135
REMARK   59  A    between atoms: _135  and  _136
REMARK   60  A    between atoms: _135  and  _138
REMARK   61  A    between atoms: _138  and  _139
REMARK   62  A    between atoms: _144  and  _146
REMARK   63  A    between atoms: _146  and  _147
REMARK   64  A    between atoms: _146  and  _149
REMARK   65  A    between atoms: _153  and  _154
REMARK   66  A    between atoms: _159  and  _161
REMARK   67  A    between atoms: _161  and  _162
REMARK   68  A    between atoms: _161  and  _164
REMARK   69  A    between atoms: _164  and  _165
REMARK   70  A    between atoms: _170  and  _171
REMARK   71  A    between atoms: _173  and  _175
REMARK   72  A    between atoms: _175  and  _176
REMARK   73  A    between atoms: _175  and  _178
REMARK   74  A    between atoms: _178  and  _179
REMARK   75  A    between atoms: _182  and  _184
REMARK   76  A    between atoms: _184  and  _185
REMARK   77  A    between atoms: _184  and  _187
REMARK   78  A    between atoms: _187  and  _188
REMARK   79  A    between atoms: _188  and  _189
REMARK   80  A    between atoms: _194  and  _196
REMARK   81  A    between atoms: _196  and  _197
REMARK   82  A    between atoms: _199  and  _201
REMARK   83  A    between atoms: _201  and  _202
REMARK   84  A    between atoms: _201  and  _204
REMARK   85  A    between atoms: _204  and  _205
REMARK   86  A    between atoms: _205  and  _206
REMARK   87  A    between atoms: _206  and  _207
REMARK   88  A    between atoms: _207  and  _208
REMARK   89  A    between atoms: _212  and  _214
REMARK   90  A    between atoms: _214  and  _215
REMARK   91  A    between atoms: _214  and  _217
REMARK   92  A    between atoms: _217  and  _218
REMARK   93  A    between atoms: _228  and  _230
REMARK   94  A    between atoms: _230  and  _231
REMARK   95  A    between atoms: _230  and  _233
REMARK   96  A    between atoms: _233  and  _234
REMARK   97  A    between atoms: _237  and  _239
REMARK   98  A    between atoms: _239  and  _240
REMARK   99  A    between atoms: _239  and  _242
REMARK  100  A    between atoms: _242  and  _243
REMARK  101  A    between atoms: _243  and  _244
REMARK  102  A    between atoms: _244  and  _245
REMARK  103  A    between atoms: _245  and  _246
REMARK  104  A    between atoms: _250  and  _252
REMARK  105  A    between atoms: _252  and  _253
REMARK  106  A    between atoms: _252  and  _255
REMARK  107  A    between atoms: _255  and  _256
REMARK  108  A    between atoms: _262  and  _264
REMARK  109  A    between atoms: _264  and  _265
REMARK  110  A    between atoms: _264  and  _267
REMARK  111  A    between atoms: _267  and  _268
REMARK  112  A    between atoms: _274  and  _276
REMARK  113  A    between atoms: _276  and  _277
REMARK  114  A    between atoms: _276  and  _279
REMARK  115  A    between atoms: _279  and  _280
REMARK  116  A    between atoms: _283  and  _285
REMARK  117  A    between atoms: _285  and  _286
REMARK  118  A    between atoms: _285  and  _288
REMARK  119  A    between atoms: _288  and  _289
REMARK  120  A    between atoms: _291  and  _293
REMARK  121  A    between atoms: _293  and  _294
REMARK  122  A    between atoms: _293  and  _296
REMARK  123  A    between atoms: _296  and  _297
REMARK  124  A    between atoms: _307  and  _309
REMARK  125  A    between atoms: _309  and  _310
REMARK  126  A    between atoms: _312  and  _314
REMARK  127  A    between atoms: _314  and  _315
REMARK  128  A    between atoms: _314  and  _317
REMARK  129  A    between atoms: _317  and  _318
REMARK  130  A    between atoms: _321  and  _323
REMARK  131  A    between atoms: _323  and  _324
REMARK  132  A    between atoms: _323  and  _326
REMARK  133  A    between atoms: _326  and  _327
REMARK  134  A    between atoms: _330  and  _332
REMARK  135  A    between atoms: _332  and  _333
REMARK  136  A    between atoms: _335  and  _337
REMARK  137  A    between atoms: _337  and  _338
REMARK  138  A    between atoms: _337  and  _340
REMARK  139  A    between atoms: _340  and  _341
REMARK  140  A    between atoms: _344  and  _346
REMARK  141  A    between atoms: _346  and  _347
REMARK  142  A    between atoms: _350  and  _352
REMARK  143  A    between atoms: _352  and  _353
REMARK  144  A    between atoms: _352  and  _355
REMARK  145  A    between atoms: _355  and  _356
REMARK  146  A    between atoms: _361  and  _362
REMARK  147  A    between atoms: _364  and  _366
REMARK  148  A    between atoms: _366  and  _367
REMARK  149  A    between atoms: _370  and  _372
REMARK  150  A    between atoms: _372  and  _373
REMARK  151  A    between atoms: _372  and  _375
REMARK  152  A    between atoms: _375  and  _376
REMARK  153  A    between atoms: _376  and  _377
REMARK  154  A    between atoms: _380  and  _382
REMARK  155  A    between atoms: _382  and  _383
REMARK  156  A    between atoms: _382  and  _385
REMARK  157  A    between atoms: _385  and  _386
REMARK  158  A    between atoms: _389  and  _391
REMARK  159  A    between atoms: _391  and  _392
REMARK  160  A    between atoms: _395  and  _397
REMARK  161  A    between atoms: _397  and  _398
REMARK  162  A    between atoms: _397  and  _400
REMARK  163  A    between atoms: _400  and  _401
REMARK  164  A    between atoms: _401  and  _402
REMARK  165  A    between atoms: _402  and  _403
REMARK  166  A    between atoms: _412  and  _414
REMARK  167  A    between atoms: _414  and  _415
REMARK  168  A    between atoms: _414  and  _417
REMARK  169  A    between atoms: _417  and  _418
REMARK  170  A    between atoms: _421  and  _423
REMARK  171  A    between atoms: _423  and  _424
REMARK  172  A    between atoms: _426  and  _428
REMARK  173  A    between atoms: _428  and  _429
REMARK  174  A    between atoms: _428  and  _431
REMARK  175  A    between atoms: _431  and  _432
REMARK  176  A    between atoms: _442  and  _444
REMARK  177  A    between atoms: _444  and  _445
REMARK  178  A    between atoms: _444  and  _447
REMARK  179  A    between atoms: _447  and  _448
REMARK  180  A    between atoms: _453  and  _454
REMARK  181  A    between atoms: _456  and  _458
REMARK  182  A    between atoms: _458  and  _459
REMARK  183  A    between atoms: _458  and  _461
REMARK  184  A    between atoms: _461  and  _462
REMARK  185  A    between atoms: _467  and  _468
REMARK  186  A    between atoms: _470  and  _472
REMARK  187  A    between atoms: _472  and  _473
REMARK  188  A    between atoms: _472  and  _475
REMARK  189  A    between atoms: _475  and  _476
REMARK  190  A    between atoms: _476  and  _477
REMARK  191  A    between atoms: _477  and  _478
REMARK  192  A    between atoms: _478  and  _479
REMARK  193  A    between atoms: _483  and  _485
REMARK  194  A    between atoms: _485  and  _486
REMARK  195  A    between atoms: _485  and  _488
REMARK  196  A    between atoms: _488  and  _489
REMARK  197  A    between atoms: _492  and  _494
REMARK  198  A    between atoms: _494  and  _495
REMARK  199  A    between atoms: _494  and  _497
REMARK  200  A    between atoms: _500  and  _502
REMARK  201  A    between atoms: _502  and  _503
REMARK  202  A    between atoms: _502  and  _505
REMARK  203  A    between atoms: _505  and  _506
REMARK  204  A    between atoms: _509  and  _511
REMARK  205  A    between atoms: _511  and  _512
REMARK  206  A    between atoms: _511  and  _514
REMARK  207  A    between atoms: _514  and  _515
REMARK  208  A    between atoms: _517  and  _519
REMARK  209  A    between atoms: _519  and  _520
REMARK  210  A    between atoms: _522  and  _524
REMARK  211  A    between atoms: _524  and  _525
REMARK  212  A    between atoms: _524  and  _527
REMARK  213  A    between atoms: _527  and  _528
REMARK  214  A    between atoms: _531  and  _533
REMARK  215  A    between atoms: _533  and  _534
REMARK  216  A    between atoms: _533  and  _536
REMARK  217  A    between atoms: _536  and  _537
REMARK  218  A    between atoms: _540  and  _542
REMARK  219  A    between atoms: _542  and  _543
REMARK  220  A    between atoms: _542  and  _545
REMARK  221  A    between atoms: _545  and  _546
REMARK  222  A    between atoms: _551  and  _553
REMARK  223  A    between atoms: _553  and  _554
REMARK  224  A    between atoms: _553  and  _556
REMARK  225  A    between atoms: _556  and  _557
REMARK  226  A    between atoms: _560  and  _562
REMARK  227  A    between atoms: _562  and  _563
REMARK  228  A    between atoms: _562  and  _565
REMARK  229  A    between atoms: _565  and  _566
REMARK  230  A    between atoms: _566  and  _567
REMARK  231  A    between atoms: _567  and  _568
REMARK  232  A    between atoms: _577  and  _579
REMARK  233  A    between atoms: _579  and  _580
REMARK  234  A    between atoms: _579  and  _582
REMARK  235  A    between atoms: _582  and  _583
REMARK  236  A    between atoms: _586  and  _588
REMARK  237  A    between atoms: _588  and  _589
REMARK  238  A    between atoms: _588  and  _591
REMARK  239  A    between atoms: _591  and  _592
REMARK  240  A    between atoms: _595  and  _597
REMARK  241  A    between atoms: _597  and  _598
REMARK  242  A    between atoms: _600  and  _602
REMARK  243  A    between atoms: _602  and  _603
REMARK  244  A    between atoms: _602  and  _605
REMARK  245  A    between atoms: _605  and  _606
REMARK  246  A    between atoms: _606  and  _607
REMARK  247  A    between atoms: _607  and  _608
REMARK  248  A    between atoms: _617  and  _619
REMARK  249  A    between atoms: _619  and  _620
REMARK  250  A    between atoms: _619  and  _622
REMARK  251  A    between atoms: _622  and  _623
REMARK  252  A    between atoms: _629  and  _631
REMARK  253  A    between atoms: _631  and  _632
REMARK  254  A    between atoms: _635  and  _637
REMARK  255  A    between atoms: _637  and  _638
REMARK  256  A    between atoms: _637  and  _640
REMARK  257  A    between atoms: _640  and  _641
REMARK  258  A    between atoms: _644  and  _646
REMARK  259  A    between atoms: _646  and  _647
REMARK  260  A    between atoms: _646  and  _649
REMARK  261  A    between atoms: _649  and  _650
REMARK  262  A    between atoms: _652  and  _654
REMARK  263  A    between atoms: _654  and  _655
REMARK  264  A    between atoms: _654  and  _657
REMARK  265  A    between atoms: _657  and  _658
REMARK  266  A    between atoms: _658  and  _659
REMARK  267  A    between atoms: _664  and  _666
REMARK  268  A    between atoms: _666  and  _667
REMARK  269  A    between atoms: _666  and  _669
REMARK  270  A    between atoms: _669  and  _670
REMARK  271  A    between atoms: _672  and  _674
REMARK  272  A    between atoms: _674  and  _675
REMARK  273  A    between atoms: _674  and  _677
REMARK  274  A    between atoms: _677  and  _678
REMARK  275  A    between atoms: _680  and  _682
REMARK  276  A    between atoms: _682  and  _683
REMARK  277  A    between atoms: _682  and  _685
REMARK  278  A    between atoms: _685  and  _686
REMARK  279  A    between atoms: _689  and  _691
REMARK  280  A    between atoms: _691  and  _692
REMARK  281  A    between atoms: _691  and  _694
REMARK  282  A    between atoms: _697  and  _699
REMARK  283  A    between atoms: _699  and  _700
REMARK  284  A    between atoms: _702  and  _704
REMARK  285  A    between atoms: _704  and  _705
REMARK  286  A    between atoms: _708  and  _710
REMARK  287  A    between atoms: _710  and  _711
REMARK  288  A    between atoms: _710  and  _713
REMARK  289  A    between atoms: _716  and  _718
REMARK  290  A    between atoms: _718  and  _719
REMARK  291  A    between atoms: _718  and  _721
REMARK  292  A    between atoms: _721  and  _722
REMARK  293  A    between atoms: _722  and  _723
REMARK  294  A    between atoms: _725  and  _727
REMARK  295  A    between atoms: _727  and  _728
REMARK  296  A    between atoms: _727  and  _730
REMARK  297  A    between atoms: _730  and  _731
REMARK  298  A    between atoms: _731  and  _732
REMARK                            x       y       z     vdW  Elec       q    Type
REMARK                         _______ _______ _______ _____ _____    ______ ____
ROOT
ATOM      1  O   HOH     1       6.477 -10.845  36.223  0.00  0.00    +0.000 OA
ENDROOT
TORSDOF 0
REMARK  Name = ../refined-set-2016/2vkm/2vkm_pocket.pdb
REMARK  298 active torsions:
REMARK  status: ('A' for Active; 'I' for Inactive)
REMARK    1  A    between atoms: _1  and  _3
REMARK    2  A    between atoms: _3  and  _4
REMARK    3  A    between atoms: _6  and  _8
REMARK    4  A    between atoms: _8  and  _9
REMARK    5  A    between atoms: _8  and  _11
REMARK    6  A    between atoms: _11  and  _12
REMARK    7  A    between atoms: _12  and  _13
REMARK    8  A    between atoms: _13  and  _14
REMARK    9  A    between atoms: _14  and  _15
REMARK   10  A    between atoms: _19  and  _21
REMARK   11  A    between atoms: _21  and  _22
REMARK   12  A    between atoms: _21  and  _24
REMARK   13  A    between atoms: _24  and  _25
REMARK   14  A    between atoms: _27  and  _29
REMARK   15  A    between atoms: _29  and  _30
REMARK   16  A    between atoms: _32  and  _34
REMARK   17  A    between atoms: _34  and  _35
REMARK   18  A    between atoms: _34  and  _37
REMARK   19  A    between atoms: _37  and  _38
REMARK   20  A    between atoms: _38  and  _39
REMARK   21  A    between atoms: _44  and  _46
REMARK   22  A    between atoms: _46  and  _47
REMARK   23  A    between atoms: _49  and  _51
REMARK   24  A    between atoms: _51  and  _52
REMARK   25  A    between atoms: _51  and  _54
REMARK   26  A    between atoms: _54  and  _55
REMARK   27  A    between atoms: _60  and  _61
REMARK   28  A    between atoms: _63  and  _65
REMARK   29  A    between atoms: _65  and  _66
REMARK   30  A    between atoms: _65  and  _68
REMARK   31  A    between atoms: _68  and  _69
REMARK   32  A    between atoms: _74  and  _75
REMARK   33  A    between atoms: _77  and  _79
REMARK   34  A    between atoms: _79  and  _80
REMARK   35  A    between atoms: _79  and  _82
REMARK   36  A    between atoms: _82  and  _83
REMARK   37  A    between atoms: _86  and  _88
REMARK   38  A    between atoms: _88  and  _89
REMARK   39  A    between atoms: _88  and  _91
REMARK   40  A    between atoms: _94  and  _96
REMARK   41  A    between atoms: _96  and  _97
REMARK   42  A    between atoms: _96  and  _99
REMARK   43  A    between atoms: _99  and  _100
REMARK   44  A    between atoms: _103  and  _105
REMARK   45  A    between atoms: _105  and  _106
REMARK   46  A    between atoms: _105  and  _108
REMARK   47  A    between atoms: _108  and  _109
REMARK   48  A    between atoms: _112  and  _114
REMARK   49  A    between atoms: _114  and  _115
REMARK   50  A    between atoms: _117  and  _119
REMARK   51  A    between atoms: _119  and  _120
REMARK   52  A    between atoms: _119  and  _122
REMARK   53  A    between atoms: _122  and  _123
REMARK   54  A    between atoms: _125  and  _127
REMARK   55  A    between atoms: _127  and  _128
REMARK   56  A    between atoms: _127  and  _130
REMARK   57  A    between atoms: _130  and  _131
REMARK   58  A    between atoms: _133  and  _135
REMARK   59  A    between atoms: _135  and  _136
REMARK   60  A    between atoms: _135  and  _138
REMARK   61  A    between atoms: _138  and  _139
REMARK   62  A    between atoms: _144  and  _146
REMARK   63  A    between atoms: _146  and  _147
REMARK   64  A    between atoms: _146  and  _149
REMARK   65  A    between atoms: _153  and  _154
REMARK   66  A    between atoms: _159  and  _161
REMARK   67  A    between atoms: _161  and  _162
REMARK   68  A    between atoms: _161  and  _164
REMARK   69  A    between atoms: _164  and  _165
REMARK   70  A    between atoms: _170  and  _171
REMARK   71  A    between atoms: _173  and  _175
REMARK   72  A    between atoms: _175  and  _176
REMARK   73  A    between atoms: _175  and  _178
REMARK   74  A    between atoms: _178  and  _179
REMARK   75  A    between atoms: _182  and  _184
REMARK   76  A    between atoms: _184  and  _185
REMARK   77  A    between atoms: _184  and  _187
REMARK   78  A    between atoms: _187  and  _188
REMARK   79  A    between atoms: _188  and  _189
REMARK   80  A    between atoms: _194  and  _196
REMARK   81  A    between atoms: _196  and  _197
REMARK   82  A    between atoms: _199  and  _201
REMARK   83  A    between atoms: _201  and  _202
REMARK   84  A    between atoms: _201  and  _204
REMARK   85  A    between atoms: _204  and  _205
REMARK   86  A    between atoms: _205  and  _206
REMARK   87  A    between atoms: _206  and  _207
REMARK   88  A    between atoms: _207  and  _208
REMARK   89  A    between atoms: _212  and  _214
REMARK   90  A    between atoms: _214  and  _215
REMARK   91  A    between atoms: _214  and  _217
REMARK   92  A    between atoms: _217  and  _218
REMARK   93  A    between atoms: _228  and  _230
REMARK   94  A    between atoms: _230  and  _231
REMARK   95  A    between atoms: _230  and  _233
REMARK   96  A    between atoms: _233  and  _234
REMARK   97  A    between atoms: _237  and  _239
REMARK   98  A    between atoms: _239  and  _240
REMARK   99  A    between atoms: _239  and  _242
REMARK  100  A    between atoms: _242  and  _243
REMARK  101  A    between atoms: _243  and  _244
REMARK  102  A    between atoms: _244  and  _245
REMARK  103  A    between atoms: _245  and  _246
REMARK  104  A    between atoms: _250  and  _252
REMARK  105  A    between atoms: _252  and  _253
REMARK  106  A    between atoms: _252  and  _255
REMARK  107  A    between atoms: _255  and  _256
REMARK  108  A    between atoms: _262  and  _264
REMARK  109  A    between atoms: _264  and  _265
REMARK  110  A    between atoms: _264  and  _267
REMARK  111  A    between atoms: _267  and  _268
REMARK  112  A    between atoms: _274  and  _276
REMARK  113  A    between atoms: _276  and  _277
REMARK  114  A    between atoms: _276  and  _279
REMARK  115  A    between atoms: _279  and  _280
REMARK  116  A    between atoms: _283  and  _285
REMARK  117  A    between atoms: _285  and  _286
REMARK  118  A    between atoms: _285  and  _288
REMARK  119  A    between atoms: _288  and  _289
REMARK  120  A    between atoms: _291  and  _293
REMARK  121  A    between atoms: _293  and  _294
REMARK  122  A    between atoms: _293  and  _296
REMARK  123  A    between atoms: _296  and  _297
REMARK  124  A    between atoms: _307  and  _309
REMARK  125  A    between atoms: _309  and  _310
REMARK  126  A    between atoms: _312  and  _314
REMARK  127  A    between atoms: _314  and  _315
REMARK  128  A    between atoms: _314  and  _317
REMARK  129  A    between atoms: _317  and  _318
REMARK  130  A    between atoms: _321  and  _323
REMARK  131  A    between atoms: _323  and  _324
REMARK  132  A    between atoms: _323  and  _326
REMARK  133  A    between atoms: _326  and  _327
REMARK  134  A    between atoms: _330  and  _332
REMARK  135  A    between atoms: _332  and  _333
REMARK  136  A    between atoms: _335  and  _337
REMARK  137  A    between atoms: _337  and  _338
REMARK  138  A    between atoms: _337  and  _340
REMARK  139  A    between atoms: _340  and  _341
REMARK  140  A    between atoms: _344  and  _346
REMARK  141  A    between atoms: _346  and  _347
REMARK  142  A    between atoms: _350  and  _352
REMARK  143  A    between atoms: _352  and  _353
REMARK  144  A    between atoms: _352  and  _355
REMARK  145  A    between atoms: _355  and  _356
REMARK  146  A    between atoms: _361  and  _362
REMARK  147  A    between atoms: _364  and  _366
REMARK  148  A    between atoms: _366  and  _367
REMARK  149  A    between atoms: _370  and  _372
REMARK  150  A    between atoms: _372  and  _373
REMARK  151  A    between atoms: _372  and  _375
REMARK  152  A    between atoms: _375  and  _376
REMARK  153  A    between atoms: _376  and  _377
REMARK  154  A    between atoms: _380  and  _382
REMARK  155  A    between atoms: _382  and  _383
REMARK  156  A    between atoms: _382  and  _385
REMARK  157  A    between atoms: _385  and  _386
REMARK  158  A    between atoms: _389  and  _391
REMARK  159  A    between atoms: _391  and  _392
REMARK  160  A    between atoms: _395  and  _397
REMARK  161  A    between atoms: _397  and  _398
REMARK  162  A    between atoms: _397  and  _400
REMARK  163  A    between atoms: _400  and  _401
REMARK  164  A    between atoms: _401  and  _402
REMARK  165  A    between atoms: _402  and  _403
REMARK  166  A    between atoms: _412  and  _414
REMARK  167  A    between atoms: _414  and  _415
REMARK  168  A    between atoms: _414  and  _417
REMARK  169  A    between atoms: _417  and  _418
REMARK  170  A    between atoms: _421  and  _423
REMARK  171  A    between atoms: _423  and  _424
REMARK  172  A    between atoms: _426  and  _428
REMARK  173  A    between atoms: _428  and  _429
REMARK  174  A    between atoms: _428  and  _431
REMARK  175  A    between atoms: _431  and  _432
REMARK  176  A    between atoms: _442  and  _444
REMARK  177  A    between atoms: _444  and  _445
REMARK  178  A    between atoms: _444  and  _447
REMARK  179  A    between atoms: _447  and  _448
REMARK  180  A    between atoms: _453  and  _454
REMARK  181  A    between atoms: _456  and  _458
REMARK  182  A    between atoms: _458  and  _459
REMARK  183  A    between atoms: _458  and  _461
REMARK  184  A    between atoms: _461  and  _462
REMARK  185  A    between atoms: _467  and  _468
REMARK  186  A    between atoms: _470  and  _472
REMARK  187  A    between atoms: _472  and  _473
REMARK  188  A    between atoms: _472  and  _475
REMARK  189  A    between atoms: _475  and  _476
REMARK  190  A    between atoms: _476  and  _477
REMARK  191  A    between atoms: _477  and  _478
REMARK  192  A    between atoms: _478  and  _479
REMARK  193  A    between atoms: _483  and  _485
REMARK  194  A    between atoms: _485  and  _486
REMARK  195  A    between atoms: _485  and  _488
REMARK  196  A    between atoms: _488  and  _489
REMARK  197  A    between atoms: _492  and  _494
REMARK  198  A    between atoms: _494  and  _495
REMARK  199  A    between atoms: _494  and  _497
REMARK  200  A    between atoms: _500  and  _502
REMARK  201  A    between atoms: _502  and  _503
REMARK  202  A    between atoms: _502  and  _505
REMARK  203  A    between atoms: _505  and  _506
REMARK  204  A    between atoms: _509  and  _511
REMARK  205  A    between atoms: _511  and  _512
REMARK  206  A    between atoms: _511  and  _514
REMARK  207  A    between atoms: _514  and  _515
REMARK  208  A    between atoms: _517  and  _519
REMARK  209  A    between atoms: _519  and  _520
REMARK  210  A    between atoms: _522  and  _524
REMARK  211  A    between atoms: _524  and  _525
REMARK  212  A    between atoms: _524  and  _527
REMARK  213  A    between atoms: _527  and  _528
REMARK  214  A    between atoms: _531  and  _533
REMARK  215  A    between atoms: _533  and  _534
REMARK  216  A    between atoms: _533  and  _536
REMARK  217  A    between atoms: _536  and  _537
REMARK  218  A    between atoms: _540  and  _542
REMARK  219  A    between atoms: _542  and  _543
REMARK  220  A    between atoms: _542  and  _545
REMARK  221  A    between atoms: _545  and  _546
REMARK  222  A    between atoms: _551  and  _553
REMARK  223  A    between atoms: _553  and  _554
REMARK  224  A    between atoms: _553  and  _556
REMARK  225  A    between atoms: _556  and  _557
REMARK  226  A    between atoms: _560  and  _562
REMARK  227  A    between atoms: _562  and  _563
REMARK  228  A    between atoms: _562  and  _565
REMARK  229  A    between atoms: _565  and  _566
REMARK  230  A    between atoms: _566  and  _567
REMARK  231  A    between atoms: _567  and  _568
REMARK  232  A    between atoms: _577  and  _579
REMARK  233  A    between atoms: _579  and  _580
REMARK  234  A    between atoms: _579  and  _582
REMARK  235  A    between atoms: _582  and  _583
REMARK  236  A    between atoms: _586  and  _588
REMARK  237  A    between atoms: _588  and  _589
REMARK  238  A    between atoms: _588  and  _591
REMARK  239  A    between atoms: _591  and  _592
REMARK  240  A    between atoms: _595  and  _597
REMARK  241  A    between atoms: _597  and  _598
REMARK  242  A    between atoms: _600  and  _602
REMARK  243  A    between atoms: _602  and  _603
REMARK  244  A    between atoms: _602  and  _605
REMARK  245  A    between atoms: _605  and  _606
REMARK  246  A    between atoms: _606  and  _607
REMARK  247  A    between atoms: _607  and  _608
REMARK  248  A    between atoms: _617  and  _619
REMARK  249  A    between atoms: _619  and  _620
REMARK  250  A    between atoms: _619  and  _622
REMARK  251  A    between atoms: _622  and  _623
REMARK  252  A    between atoms: _629  and  _631
REMARK  253  A    between atoms: _631  and  _632
REMARK  254  A    between atoms: _635  and  _637
REMARK  255  A    between atoms: _637  and  _638
REMARK  256  A    between atoms: _637  and  _640
REMARK  257  A    between atoms: _640  and  _641
REMARK  258  A    between atoms: _644  and  _646
REMARK  259  A    between atoms: _646  and  _647
REMARK  260  A    between atoms: _646  and  _649
REMARK  261  A    between atoms: _649  and  _650
REMARK  262  A    between atoms: _652  and  _654
REMARK  263  A    between atoms: _654  and  _655
REMARK  264  A    between atoms: _654  and  _657
REMARK  265  A    between atoms: _657  and  _658
REMARK  266  A    between atoms: _658  and  _659
REMARK  267  A    between atoms: _664  and  _666
REMARK  268  A    between atoms: _666  and  _667
REMARK  269  A    between atoms: _666  and  _669
REMARK  270  A    between atoms: _669  and  _670
REMARK  271  A    between atoms: _672  and  _674
REMARK  272  A    between atoms: _674  and  _675
REMARK  273  A    between atoms: _674  and  _677
REMARK  274  A    between atoms: _677  and  _678
REMARK  275  A    between atoms: _680  and  _682
REMARK  276  A    between atoms: _682  and  _683
REMARK  277  A    between atoms: _682  and  _685
REMARK  278  A    between atoms: _685  and  _686
REMARK  279  A    between atoms: _689  and  _691
REMARK  280  A    between atoms: _691  and  _692
REMARK  281  A    between atoms: _691  and  _694
REMARK  282  A    between atoms: _697  and  _699
REMARK  283  A    between atoms: _699  and  _700
REMARK  284  A    between atoms: _702  and  _704
REMARK  285  A    between atoms: _704  and  _705
REMARK  286  A    between atoms: _708  and  _710
REMARK  287  A    between atoms: _710  and  _711
REMARK  288  A    between atoms: _710  and  _713
REMARK  289  A    between atoms: _716  and  _718
REMARK  290  A    between atoms: _718  and  _719
REMARK  291  A    between atoms: _718  and  _721
REMARK  292  A    between atoms: _721  and  _722
REMARK  293  A    between atoms: _722  and  _723
REMARK  294  A    between atoms: _725  and  _727
REMARK  295  A    between atoms: _727  and  _728
REMARK  296  A    between atoms: _727  and  _730
REMARK  297  A    between atoms: _730  and  _731
REMARK  298  A    between atoms: _731  and  _732
REMARK                            x       y       z     vdW  Elec       q    Type
REMARK                         _______ _______ _______ _____ _____    ______ ____
ROOT
ATOM      1  O   HOH     1       0.944 -14.481  33.332  0.00  0.00    +0.000 OA
ENDROOT
TORSDOF 0
REMARK  Name = ../refined-set-2016/2vkm/2vkm_pocket.pdb
REMARK  298 active torsions:
REMARK  status: ('A' for Active; 'I' for Inactive)
REMARK    1  A    between atoms: _1  and  _3
REMARK    2  A    between atoms: _3  and  _4
REMARK    3  A    between atoms: _6  and  _8
REMARK    4  A    between atoms: _8  and  _9
REMARK    5  A    between atoms: _8  and  _11
REMARK    6  A    between atoms: _11  and  _12
REMARK    7  A    between atoms: _12  and  _13
REMARK    8  A    between atoms: _13  and  _14
REMARK    9  A    between atoms: _14  and  _15
REMARK   10  A    between atoms: _19  and  _21
REMARK   11  A    between atoms: _21  and  _22
REMARK   12  A    between atoms: _21  and  _24
REMARK   13  A    between atoms: _24  and  _25
REMARK   14  A    between atoms: _27  and  _29
REMARK   15  A    between atoms: _29  and  _30
REMARK   16  A    between atoms: _32  and  _34
REMARK   17  A    between atoms: _34  and  _35
REMARK   18  A    between atoms: _34  and  _37
REMARK   19  A    between atoms: _37  and  _38
REMARK   20  A    between atoms: _38  and  _39
REMARK   21  A    between atoms: _44  and  _46
REMARK   22  A    between atoms: _46  and  _47
REMARK   23  A    between atoms: _49  and  _51
REMARK   24  A    between atoms: _51  and  _52
REMARK   25  A    between atoms: _51  and  _54
REMARK   26  A    between atoms: _54  and  _55
REMARK   27  A    between atoms: _60  and  _61
REMARK   28  A    between atoms: _63  and  _65
REMARK   29  A    between atoms: _65  and  _66
REMARK   30  A    between atoms: _65  and  _68
REMARK   31  A    between atoms: _68  and  _69
REMARK   32  A    between atoms: _74  and  _75
REMARK   33  A    between atoms: _77  and  _79
REMARK   34  A    between atoms: _79  and  _80
REMARK   35  A    between atoms: _79  and  _82
REMARK   36  A    between atoms: _82  and  _83
REMARK   37  A    between atoms: _86  and  _88
REMARK   38  A    between atoms: _88  and  _89
REMARK   39  A    between atoms: _88  and  _91
REMARK   40  A    between atoms: _94  and  _96
REMARK   41  A    between atoms: _96  and  _97
REMARK   42  A    between atoms: _96  and  _99
REMARK   43  A    between atoms: _99  and  _100
REMARK   44  A    between atoms: _103  and  _105
REMARK   45  A    between atoms: _105  and  _106
REMARK   46  A    between atoms: _105  and  _108
REMARK   47  A    between atoms: _108  and  _109
REMARK   48  A    between atoms: _112  and  _114
REMARK   49  A    between atoms: _114  and  _115
REMARK   50  A    between atoms: _117  and  _119
REMARK   51  A    between atoms: _119  and  _120
REMARK   52  A    between atoms: _119  and  _122
REMARK   53  A    between atoms: _122  and  _123
REMARK   54  A    between atoms: _125  and  _127
REMARK   55  A    between atoms: _127  and  _128
REMARK   56  A    between atoms: _127  and  _130
REMARK   57  A    between atoms: _130  and  _131
REMARK   58  A    between atoms: _133  and  _135
REMARK   59  A    between atoms: _135  and  _136
REMARK   60  A    between atoms: _135  and  _138
REMARK   61  A    between atoms: _138  and  _139
REMARK   62  A    between atoms: _144  and  _146
REMARK   63  A    between atoms: _146  and  _147
REMARK   64  A    between atoms: _146  and  _149
REMARK   65  A    between atoms: _153  and  _154
REMARK   66  A    between atoms: _159  and  _161
REMARK   67  A    between atoms: _161  and  _162
REMARK   68  A    between atoms: _161  and  _164
REMARK   69  A    between atoms: _164  and  _165
REMARK   70  A    between atoms: _170  and  _171
REMARK   71  A    between atoms: _173  and  _175
REMARK   72  A    between atoms: _175  and  _176
REMARK   73  A    between atoms: _175  and  _178
REMARK   74  A    between atoms: _178  and  _179
REMARK   75  A    between atoms: _182  and  _184
REMARK   76  A    between atoms: _184  and  _185
REMARK   77  A    between atoms: _184  and  _187
REMARK   78  A    between atoms: _187  and  _188
REMARK   79  A    between atoms: _188  and  _189
REMARK   80  A    between atoms: _194  and  _196
REMARK   81  A    between atoms: _196  and  _197
REMARK   82  A    between atoms: _199  and  _201
REMARK   83  A    between atoms: _201  and  _202
REMARK   84  A    between atoms: _201  and  _204
REMARK   85  A    between atoms: _204  and  _205
REMARK   86  A    between atoms: _205  and  _206
REMARK   87  A    between atoms: _206  and  _207
REMARK   88  A    between atoms: _207  and  _208
REMARK   89  A    between atoms: _212  and  _214
REMARK   90  A    between atoms: _214  and  _215
REMARK   91  A    between atoms: _214  and  _217
REMARK   92  A    between atoms: _217  and  _218
REMARK   93  A    between atoms: _228  and  _230
REMARK   94  A    between atoms: _230  and  _231
REMARK   95  A    between atoms: _230  and  _233
REMARK   96  A    between atoms: _233  and  _234
REMARK   97  A    between atoms: _237  and  _239
REMARK   98  A    between atoms: _239  and  _240
REMARK   99  A    between atoms: _239  and  _242
REMARK  100  A    between atoms: _242  and  _243
REMARK  101  A    between atoms: _243  and  _244
REMARK  102  A    between atoms: _244  and  _245
REMARK  103  A    between atoms: _245  and  _246
REMARK  104  A    between atoms: _250  and  _252
REMARK  105  A    between atoms: _252  and  _253
REMARK  106  A    between atoms: _252  and  _255
REMARK  107  A    between atoms: _255  and  _256
REMARK  108  A    between atoms: _262  and  _264
REMARK  109  A    between atoms: _264  and  _265
REMARK  110  A    between atoms: _264  and  _267
REMARK  111  A    between atoms: _267  and  _268
REMARK  112  A    between atoms: _274  and  _276
REMARK  113  A    between atoms: _276  and  _277
REMARK  114  A    between atoms: _276  and  _279
REMARK  115  A    between atoms: _279  and  _280
REMARK  116  A    between atoms: _283  and  _285
REMARK  117  A    between atoms: _285  and  _286
REMARK  118  A    between atoms: _285  and  _288
REMARK  119  A    between atoms: _288  and  _289
REMARK  120  A    between atoms: _291  and  _293
REMARK  121  A    between atoms: _293  and  _294
REMARK  122  A    between atoms: _293  and  _296
REMARK  123  A    between atoms: _296  and  _297
REMARK  124  A    between atoms: _307  and  _309
REMARK  125  A    between atoms: _309  and  _310
REMARK  126  A    between atoms: _312  and  _314
REMARK  127  A    between atoms: _314  and  _315
REMARK  128  A    between atoms: _314  and  _317
REMARK  129  A    between atoms: _317  and  _318
REMARK  130  A    between atoms: _321  and  _323
REMARK  131  A    between atoms: _323  and  _324
REMARK  132  A    between atoms: _323  and  _326
REMARK  133  A    between atoms: _326  and  _327
REMARK  134  A    between atoms: _330  and  _332
REMARK  135  A    between atoms: _332  and  _333
REMARK  136  A    between atoms: _335  and  _337
REMARK  137  A    between atoms: _337  and  _338
REMARK  138  A    between atoms: _337  and  _340
REMARK  139  A    between atoms: _340  and  _341
REMARK  140  A    between atoms: _344  and  _346
REMARK  141  A    between atoms: _346  and  _347
REMARK  142  A    between atoms: _350  and  _352
REMARK  143  A    between atoms: _352  and  _353
REMARK  144  A    between atoms: _352  and  _355
REMARK  145  A    between atoms: _355  and  _356
REMARK  146  A    between atoms: _361  and  _362
REMARK  147  A    between atoms: _364  and  _366
REMARK  148  A    between atoms: _366  and  _367
REMARK  149  A    between atoms: _370  and  _372
REMARK  150  A    between atoms: _372  and  _373
REMARK  151  A    between atoms: _372  and  _375
REMARK  152  A    between atoms: _375  and  _376
REMARK  153  A    between atoms: _376  and  _377
REMARK  154  A    between atoms: _380  and  _382
REMARK  155  A    between atoms: _382  and  _383
REMARK  156  A    between atoms: _382  and  _385
REMARK  157  A    between atoms: _385  and  _386
REMARK  158  A    between atoms: _389  and  _391
REMARK  159  A    between atoms: _391  and  _392
REMARK  160  A    between atoms: _395  and  _397
REMARK  161  A    between atoms: _397  and  _398
REMARK  162  A    between atoms: _397  and  _400
REMARK  163  A    between atoms: _400  and  _401
REMARK  164  A    between atoms: _401  and  _402
REMARK  165  A    between atoms: _402  and  _403
REMARK  166  A    between atoms: _412  and  _414
REMARK  167  A    between atoms: _414  and  _415
REMARK  168  A    between atoms: _414  and  _417
REMARK  169  A    between atoms: _417  and  _418
REMARK  170  A    between atoms: _421  and  _423
REMARK  171  A    between atoms: _423  and  _424
REMARK  172  A    between atoms: _426  and  _428
REMARK  173  A    between atoms: _428  and  _429
REMARK  174  A    between atoms: _428  and  _431
REMARK  175  A    between atoms: _431  and  _432
REMARK  176  A    between atoms: _442  and  _444
REMARK  177  A    between atoms: _444  and  _445
REMARK  178  A    between atoms: _444  and  _447
REMARK  179  A    between atoms: _447  and  _448
REMARK  180  A    between atoms: _453  and  _454
REMARK  181  A    between atoms: _456  and  _458
REMARK  182  A    between atoms: _458  and  _459
REMARK  183  A    between atoms: _458  and  _461
REMARK  184  A    between atoms: _461  and  _462
REMARK  185  A    between atoms: _467  and  _468
REMARK  186  A    between atoms: _470  and  _472
REMARK  187  A    between atoms: _472  and  _473
REMARK  188  A    between atoms: _472  and  _475
REMARK  189  A    between atoms: _475  and  _476
REMARK  190  A    between atoms: _476  and  _477
REMARK  191  A    between atoms: _477  and  _478
REMARK  192  A    between atoms: _478  and  _479
REMARK  193  A    between atoms: _483  and  _485
REMARK  194  A    between atoms: _485  and  _486
REMARK  195  A    between atoms: _485  and  _488
REMARK  196  A    between atoms: _488  and  _489
REMARK  197  A    between atoms: _492  and  _494
REMARK  198  A    between atoms: _494  and  _495
REMARK  199  A    between atoms: _494  and  _497
REMARK  200  A    between atoms: _500  and  _502
REMARK  201  A    between atoms: _502  and  _503
REMARK  202  A    between atoms: _502  and  _505
REMARK  203  A    between atoms: _505  and  _506
REMARK  204  A    between atoms: _509  and  _511
REMARK  205  A    between atoms: _511  and  _512
REMARK  206  A    between atoms: _511  and  _514
REMARK  207  A    between atoms: _514  and  _515
REMARK  208  A    between atoms: _517  and  _519
REMARK  209  A    between atoms: _519  and  _520
REMARK  210  A    between atoms: _522  and  _524
REMARK  211  A    between atoms: _524  and  _525
REMARK  212  A    between atoms: _524  and  _527
REMARK  213  A    between atoms: _527  and  _528
REMARK  214  A    between atoms: _531  and  _533
REMARK  215  A    between atoms: _533  and  _534
REMARK  216  A    between atoms: _533  and  _536
REMARK  217  A    between atoms: _536  and  _537
REMARK  218  A    between atoms: _540  and  _542
REMARK  219  A    between atoms: _542  and  _543
REMARK  220  A    between atoms: _542  and  _545
REMARK  221  A    between atoms: _545  and  _546
REMARK  222  A    between atoms: _551  and  _553
REMARK  223  A    between atoms: _553  and  _554
REMARK  224  A    between atoms: _553  and  _556
REMARK  225  A    between atoms: _556  and  _557
REMARK  226  A    between atoms: _560  and  _562
REMARK  227  A    between atoms: _562  and  _563
REMARK  228  A    between atoms: _562  and  _565
REMARK  229  A    between atoms: _565  and  _566
REMARK  230  A    between atoms: _566  and  _567
REMARK  231  A    between atoms: _567  and  _568
REMARK  232  A    between atoms: _577  and  _579
REMARK  233  A    between atoms: _579  and  _580
REMARK  234  A    between atoms: _579  and  _582
REMARK  235  A    between atoms: _582  and  _583
REMARK  236  A    between atoms: _586  and  _588
REMARK  237  A    between atoms: _588  and  _589
REMARK  238  A    between atoms: _588  and  _591
REMARK  239  A    between atoms: _591  and  _592
REMARK  240  A    between atoms: _595  and  _597
REMARK  241  A    between atoms: _597  and  _598
REMARK  242  A    between atoms: _600  and  _602
REMARK  243  A    between atoms: _602  and  _603
REMARK  244  A    between atoms: _602  and  _605
REMARK  245  A    between atoms: _605  and  _606
REMARK  246  A    between atoms: _606  and  _607
REMARK  247  A    between atoms: _607  and  _608
REMARK  248  A    between atoms: _617  and  _619
REMARK  249  A    between atoms: _619  and  _620
REMARK  250  A    between atoms: _619  and  _622
REMARK  251  A    between atoms: _622  and  _623
REMARK  252  A    between atoms: _629  and  _631
REMARK  253  A    between atoms: _631  and  _632
REMARK  254  A    between atoms: _635  and  _637
REMARK  255  A    between atoms: _637  and  _638
REMARK  256  A    between atoms: _637  and  _640
REMARK  257  A    between atoms: _640  and  _641
REMARK  258  A    between atoms: _644  and  _646
REMARK  259  A    between atoms: _646  and  _647
REMARK  260  A    between atoms: _646  and  _649
REMARK  261  A    between atoms: _649  and  _650
REMARK  262  A    between atoms: _652  and  _654
REMARK  263  A    between atoms: _654  and  _655
REMARK  264  A    between atoms: _654  and  _657
REMARK  265  A    between atoms: _657  and  _658
REMARK  266  A    between atoms: _658  and  _659
REMARK  267  A    between atoms: _664  and  _666
REMARK  268  A    between atoms: _666  and  _667
REMARK  269  A    between atoms: _666  and  _669
REMARK  270  A    between atoms: _669  and  _670
REMARK  271  A    between atoms: _672  and  _674
REMARK  272  A    between atoms: _674  and  _675
REMARK  273  A    between atoms: _674  and  _677
REMARK  274  A    between atoms: _677  and  _678
REMARK  275  A    between atoms: _680  and  _682
REMARK  276  A    between atoms: _682  and  _683
REMARK  277  A    between atoms: _682  and  _685
REMARK  278  A    between atoms: _685  and  _686
REMARK  279  A    between atoms: _689  and  _691
REMARK  280  A    between atoms: _691  and  _692
REMARK  281  A    between atoms: _691  and  _694
REMARK  282  A    between atoms: _697  and  _699
REMARK  283  A    between atoms: _699  and  _700
REMARK  284  A    between atoms: _702  and  _704
REMARK  285  A    between atoms: _704  and  _705
REMARK  286  A    between atoms: _708  and  _710
REMARK  287  A    between atoms: _710  and  _711
REMARK  288  A    between atoms: _710  and  _713
REMARK  289  A    between atoms: _716  and  _718
REMARK  290  A    between atoms: _718  and  _719
REMARK  291  A    between atoms: _718  and  _721
REMARK  292  A    between atoms: _721  and  _722
REMARK  293  A    between atoms: _722  and  _723
REMARK  294  A    between atoms: _725  and  _727
REMARK  295  A    between atoms: _727  and  _728
REMARK  296  A    between atoms: _727  and  _730
REMARK  297  A    between atoms: _730  and  _731
REMARK  298  A    between atoms: _731  and  _732
REMARK                            x       y       z     vdW  Elec       q    Type
REMARK                         _______ _______ _______ _____ _____    ______ ____
ROOT
ATOM      1  O   HOH     1     -14.997  -2.529  33.692  0.00  0.00    +0.000 OA
ENDROOT
TORSDOF 0
REMARK  Name = ../refined-set-2016/2vkm/2vkm_pocket.pdb
REMARK  298 active torsions:
REMARK  status: ('A' for Active; 'I' for Inactive)
REMARK    1  A    between atoms: _1  and  _3
REMARK    2  A    between atoms: _3  and  _4
REMARK    3  A    between atoms: _6  and  _8
REMARK    4  A    between atoms: _8  and  _9
REMARK    5  A    between atoms: _8  and  _11
REMARK    6  A    between atoms: _11  and  _12
REMARK    7  A    between atoms: _12  and  _13
REMARK    8  A    between atoms: _13  and  _14
REMARK    9  A    between atoms: _14  and  _15
REMARK   10  A    between atoms: _19  and  _21
REMARK   11  A    between atoms: _21  and  _22
REMARK   12  A    between atoms: _21  and  _24
REMARK   13  A    between atoms: _24  and  _25
REMARK   14  A    between atoms: _27  and  _29
REMARK   15  A    between atoms: _29  and  _30
REMARK   16  A    between atoms: _32  and  _34
REMARK   17  A    between atoms: _34  and  _35
REMARK   18  A    between atoms: _34  and  _37
REMARK   19  A    between atoms: _37  and  _38
REMARK   20  A    between atoms: _38  and  _39
REMARK   21  A    between atoms: _44  and  _46
REMARK   22  A    between atoms: _46  and  _47
REMARK   23  A    between atoms: _49  and  _51
REMARK   24  A    between atoms: _51  and  _52
REMARK   25  A    between atoms: _51  and  _54
REMARK   26  A    between atoms: _54  and  _55
REMARK   27  A    between atoms: _60  and  _61
REMARK   28  A    between atoms: _63  and  _65
REMARK   29  A    between atoms: _65  and  _66
REMARK   30  A    between atoms: _65  and  _68
REMARK   31  A    between atoms: _68  and  _69
REMARK   32  A    between atoms: _74  and  _75
REMARK   33  A    between atoms: _77  and  _79
REMARK   34  A    between atoms: _79  and  _80
REMARK   35  A    between atoms: _79  and  _82
REMARK   36  A    between atoms: _82  and  _83
REMARK   37  A    between atoms: _86  and  _88
REMARK   38  A    between atoms: _88  and  _89
REMARK   39  A    between atoms: _88  and  _91
REMARK   40  A    between atoms: _94  and  _96
REMARK   41  A    between atoms: _96  and  _97
REMARK   42  A    between atoms: _96  and  _99
REMARK   43  A    between atoms: _99  and  _100
REMARK   44  A    between atoms: _103  and  _105
REMARK   45  A    between atoms: _105  and  _106
REMARK   46  A    between atoms: _105  and  _108
REMARK   47  A    between atoms: _108  and  _109
REMARK   48  A    between atoms: _112  and  _114
REMARK   49  A    between atoms: _114  and  _115
REMARK   50  A    between atoms: _117  and  _119
REMARK   51  A    between atoms: _119  and  _120
REMARK   52  A    between atoms: _119  and  _122
REMARK   53  A    between atoms: _122  and  _123
REMARK   54  A    between atoms: _125  and  _127
REMARK   55  A    between atoms: _127  and  _128
REMARK   56  A    between atoms: _127  and  _130
REMARK   57  A    between atoms: _130  and  _131
REMARK   58  A    between atoms: _133  and  _135
REMARK   59  A    between atoms: _135  and  _136
REMARK   60  A    between atoms: _135  and  _138
REMARK   61  A    between atoms: _138  and  _139
REMARK   62  A    between atoms: _144  and  _146
REMARK   63  A    between atoms: _146  and  _147
REMARK   64  A    between atoms: _146  and  _149
REMARK   65  A    between atoms: _153  and  _154
REMARK   66  A    between atoms: _159  and  _161
REMARK   67  A    between atoms: _161  and  _162
REMARK   68  A    between atoms: _161  and  _164
REMARK   69  A    between atoms: _164  and  _165
REMARK   70  A    between atoms: _170  and  _171
REMARK   71  A    between atoms: _173  and  _175
REMARK   72  A    between atoms: _175  and  _176
REMARK   73  A    between atoms: _175  and  _178
REMARK   74  A    between atoms: _178  and  _179
REMARK   75  A    between atoms: _182  and  _184
REMARK   76  A    between atoms: _184  and  _185
REMARK   77  A    between atoms: _184  and  _187
REMARK   78  A    between atoms: _187  and  _188
REMARK   79  A    between atoms: _188  and  _189
REMARK   80  A    between atoms: _194  and  _196
REMARK   81  A    between atoms: _196  and  _197
REMARK   82  A    between atoms: _199  and  _201
REMARK   83  A    between atoms: _201  and  _202
REMARK   84  A    between atoms: _201  and  _204
REMARK   85  A    between atoms: _204  and  _205
REMARK   86  A    between atoms: _205  and  _206
REMARK   87  A    between atoms: _206  and  _207
REMARK   88  A    between atoms: _207  and  _208
REMARK   89  A    between atoms: _212  and  _214
REMARK   90  A    between atoms: _214  and  _215
REMARK   91  A    between atoms: _214  and  _217
REMARK   92  A    between atoms: _217  and  _218
REMARK   93  A    between atoms: _228  and  _230
REMARK   94  A    between atoms: _230  and  _231
REMARK   95  A    between atoms: _230  and  _233
REMARK   96  A    between atoms: _233  and  _234
REMARK   97  A    between atoms: _237  and  _239
REMARK   98  A    between atoms: _239  and  _240
REMARK   99  A    between atoms: _239  and  _242
REMARK  100  A    between atoms: _242  and  _243
REMARK  101  A    between atoms: _243  and  _244
REMARK  102  A    between atoms: _244  and  _245
REMARK  103  A    between atoms: _245  and  _246
REMARK  104  A    between atoms: _250  and  _252
REMARK  105  A    between atoms: _252  and  _253
REMARK  106  A    between atoms: _252  and  _255
REMARK  107  A    between atoms: _255  and  _256
REMARK  108  A    between atoms: _262  and  _264
REMARK  109  A    between atoms: _264  and  _265
REMARK  110  A    between atoms: _264  and  _267
REMARK  111  A    between atoms: _267  and  _268
REMARK  112  A    between atoms: _274  and  _276
REMARK  113  A    between atoms: _276  and  _277
REMARK  114  A    between atoms: _276  and  _279
REMARK  115  A    between atoms: _279  and  _280
REMARK  116  A    between atoms: _283  and  _285
REMARK  117  A    between atoms: _285  and  _286
REMARK  118  A    between atoms: _285  and  _288
REMARK  119  A    between atoms: _288  and  _289
REMARK  120  A    between atoms: _291  and  _293
REMARK  121  A    between atoms: _293  and  _294
REMARK  122  A    between atoms: _293  and  _296
REMARK  123  A    between atoms: _296  and  _297
REMARK  124  A    between atoms: _307  and  _309
REMARK  125  A    between atoms: _309  and  _310
REMARK  126  A    between atoms: _312  and  _314
REMARK  127  A    between atoms: _314  and  _315
REMARK  128  A    between atoms: _314  and  _317
REMARK  129  A    between atoms: _317  and  _318
REMARK  130  A    between atoms: _321  and  _323
REMARK  131  A    between atoms: _323  and  _324
REMARK  132  A    between atoms: _323  and  _326
REMARK  133  A    between atoms: _326  and  _327
REMARK  134  A    between atoms: _330  and  _332
REMARK  135  A    between atoms: _332  and  _333
REMARK  136  A    between atoms: _335  and  _337
REMARK  137  A    between atoms: _337  and  _338
REMARK  138  A    between atoms: _337  and  _340
REMARK  139  A    between atoms: _340  and  _341
REMARK  140  A    between atoms: _344  and  _346
REMARK  141  A    between atoms: _346  and  _347
REMARK  142  A    between atoms: _350  and  _352
REMARK  143  A    between atoms: _352  and  _353
REMARK  144  A    between atoms: _352  and  _355
REMARK  145  A    between atoms: _355  and  _356
REMARK  146  A    between atoms: _361  and  _362
REMARK  147  A    between atoms: _364  and  _366
REMARK  148  A    between atoms: _366  and  _367
REMARK  149  A    between atoms: _370  and  _372
REMARK  150  A    between atoms: _372  and  _373
REMARK  151  A    between atoms: _372  and  _375
REMARK  152  A    between atoms: _375  and  _376
REMARK  153  A    between atoms: _376  and  _377
REMARK  154  A    between atoms: _380  and  _382
REMARK  155  A    between atoms: _382  and  _383
REMARK  156  A    between atoms: _382  and  _385
REMARK  157  A    between atoms: _385  and  _386
REMARK  158  A    between atoms: _389  and  _391
REMARK  159  A    between atoms: _391  and  _392
REMARK  160  A    between atoms: _395  and  _397
REMARK  161  A    between atoms: _397  and  _398
REMARK  162  A    between atoms: _397  and  _400
REMARK  163  A    between atoms: _400  and  _401
REMARK  164  A    between atoms: _401  and  _402
REMARK  165  A    between atoms: _402  and  _403
REMARK  166  A    between atoms: _412  and  _414
REMARK  167  A    between atoms: _414  and  _415
REMARK  168  A    between atoms: _414  and  _417
REMARK  169  A    between atoms: _417  and  _418
REMARK  170  A    between atoms: _421  and  _423
REMARK  171  A    between atoms: _423  and  _424
REMARK  172  A    between atoms: _426  and  _428
REMARK  173  A    between atoms: _428  and  _429
REMARK  174  A    between atoms: _428  and  _431
REMARK  175  A    between atoms: _431  and  _432
REMARK  176  A    between atoms: _442  and  _444
REMARK  177  A    between atoms: _444  and  _445
REMARK  178  A    between atoms: _444  and  _447
REMARK  179  A    between atoms: _447  and  _448
REMARK  180  A    between atoms: _453  and  _454
REMARK  181  A    between atoms: _456  and  _458
REMARK  182  A    between atoms: _458  and  _459
REMARK  183  A    between atoms: _458  and  _461
REMARK  184  A    between atoms: _461  and  _462
REMARK  185  A    between atoms: _467  and  _468
REMARK  186  A    between atoms: _470  and  _472
REMARK  187  A    between atoms: _472  and  _473
REMARK  188  A    between atoms: _472  and  _475
REMARK  189  A    between atoms: _475  and  _476
REMARK  190  A    between atoms: _476  and  _477
REMARK  191  A    between atoms: _477  and  _478
REMARK  192  A    between atoms: _478  and  _479
REMARK  193  A    between atoms: _483  and  _485
REMARK  194  A    between atoms: _485  and  _486
REMARK  195  A    between atoms: _485  and  _488
REMARK  196  A    between atoms: _488  and  _489
REMARK  197  A    between atoms: _492  and  _494
REMARK  198  A    between atoms: _494  and  _495
REMARK  199  A    between atoms: _494  and  _497
REMARK  200  A    between atoms: _500  and  _502
REMARK  201  A    between atoms: _502  and  _503
REMARK  202  A    between atoms: _502  and  _505
REMARK  203  A    between atoms: _505  and  _506
REMARK  204  A    between atoms: _509  and  _511
REMARK  205  A    between atoms: _511  and  _512
REMARK  206  A    between atoms: _511  and  _514
REMARK  207  A    between atoms: _514  and  _515
REMARK  208  A    between atoms: _517  and  _519
REMARK  209  A    between atoms: _519  and  _520
REMARK  210  A    between atoms: _522  and  _524
REMARK  211  A    between atoms: _524  and  _525
REMARK  212  A    between atoms: _524  and  _527
REMARK  213  A    between atoms: _527  and  _528
REMARK  214  A    between atoms: _531  and  _533
REMARK  215  A    between atoms: _533  and  _534
REMARK  216  A    between atoms: _533  and  _536
REMARK  217  A    between atoms: _536  and  _537
REMARK  218  A    between atoms: _540  and  _542
REMARK  219  A    between atoms: _542  and  _543
REMARK  220  A    between atoms: _542  and  _545
REMARK  221  A    between atoms: _545  and  _546
REMARK  222  A    between atoms: _551  and  _553
REMARK  223  A    between atoms: _553  and  _554
REMARK  224  A    between atoms: _553  and  _556
REMARK  225  A    between atoms: _556  and  _557
REMARK  226  A    between atoms: _560  and  _562
REMARK  227  A    between atoms: _562  and  _563
REMARK  228  A    between atoms: _562  and  _565
REMARK  229  A    between atoms: _565  and  _566
REMARK  230  A    between atoms: _566  and  _567
REMARK  231  A    between atoms: _567  and  _568
REMARK  232  A    between atoms: _577  and  _579
REMARK  233  A    between atoms: _579  and  _580
REMARK  234  A    between atoms: _579  and  _582
REMARK  235  A    between atoms: _582  and  _583
REMARK  236  A    between atoms: _586  and  _588
REMARK  237  A    between atoms: _588  and  _589
REMARK  238  A    between atoms: _588  and  _591
REMARK  239  A    between atoms: _591  and  _592
REMARK  240  A    between atoms: _595  and  _597
REMARK  241  A    between atoms: _597  and  _598
REMARK  242  A    between atoms: _600  and  _602
REMARK  243  A    between atoms: _602  and  _603
REMARK  244  A    between atoms: _602  and  _605
REMARK  245  A    between atoms: _605  and  _606
REMARK  246  A    between atoms: _606  and  _607
REMARK  247  A    between atoms: _607  and  _608
REMARK  248  A    between atoms: _617  and  _619
REMARK  249  A    between atoms: _619  and  _620
REMARK  250  A    between atoms: _619  and  _622
REMARK  251  A    between atoms: _622  and  _623
REMARK  252  A    between atoms: _629  and  _631
REMARK  253  A    between atoms: _631  and  _632
REMARK  254  A    between atoms: _635  and  _637
REMARK  255  A    between atoms: _637  and  _638
REMARK  256  A    between atoms: _637  and  _640
REMARK  257  A    between atoms: _640  and  _641
REMARK  258  A    between atoms: _644  and  _646
REMARK  259  A    between atoms: _646  and  _647
REMARK  260  A    between atoms: _646  and  _649
REMARK  261  A    between atoms: _649  and  _650
REMARK  262  A    between atoms: _652  and  _654
REMARK  263  A    between atoms: _654  and  _655
REMARK  264  A    between atoms: _654  and  _657
REMARK  265  A    between atoms: _657  and  _658
REMARK  266  A    between atoms: _658  and  _659
REMARK  267  A    between atoms: _664  and  _666
REMARK  268  A    between atoms: _666  and  _667
REMARK  269  A    between atoms: _666  and  _669
REMARK  270  A    between atoms: _669  and  _670
REMARK  271  A    between atoms: _672  and  _674
REMARK  272  A    between atoms: _674  and  _675
REMARK  273  A    between atoms: _674  and  _677
REMARK  274  A    between atoms: _677  and  _678
REMARK  275  A    between atoms: _680  and  _682
REMARK  276  A    between atoms: _682  and  _683
REMARK  277  A    between atoms: _682  and  _685
REMARK  278  A    between atoms: _685  and  _686
REMARK  279  A    between atoms: _689  and  _691
REMARK  280  A    between atoms: _691  and  _692
REMARK  281  A    between atoms: _691  and  _694
REMARK  282  A    between atoms: _697  and  _699
REMARK  283  A    between atoms: _699  and  _700
REMARK  284  A    between atoms: _702  and  _704
REMARK  285  A    between atoms: _704  and  _705
REMARK  286  A    between atoms: _708  and  _710
REMARK  287  A    between atoms: _710  and  _711
REMARK  288  A    between atoms: _710  and  _713
REMARK  289  A    between atoms: _716  and  _718
REMARK  290  A    between atoms: _718  and  _719
REMARK  291  A    between atoms: _718  and  _721
REMARK  292  A    between atoms: _721  and  _722
REMARK  293  A    between atoms: _722  and  _723
REMARK  294  A    between atoms: _725  and  _727
REMARK  295  A    between atoms: _727  and  _728
REMARK  296  A    between atoms: _727  and  _730
REMARK  297  A    between atoms: _730  and  _731
REMARK  298  A    between atoms: _731  and  _732
REMARK                            x       y       z     vdW  Elec       q    Type
REMARK                         _______ _______ _______ _____ _____    ______ ____
ROOT
ATOM      1  O   HOH     1     -10.141   2.685  30.777  0.00  0.00    +0.000 OA
ENDROOT
TORSDOF 0
REMARK  Name = ../refined-set-2016/2vkm/2vkm_pocket.pdb
REMARK  298 active torsions:
REMARK  status: ('A' for Active; 'I' for Inactive)
REMARK    1  A    between atoms: _1  and  _3
REMARK    2  A    between atoms: _3  and  _4
REMARK    3  A    between atoms: _6  and  _8
REMARK    4  A    between atoms: _8  and  _9
REMARK    5  A    between atoms: _8  and  _11
REMARK    6  A    between atoms: _11  and  _12
REMARK    7  A    between atoms: _12  and  _13
REMARK    8  A    between atoms: _13  and  _14
REMARK    9  A    between atoms: _14  and  _15
REMARK   10  A    between atoms: _19  and  _21
REMARK   11  A    between atoms: _21  and  _22
REMARK   12  A    between atoms: _21  and  _24
REMARK   13  A    between atoms: _24  and  _25
REMARK   14  A    between atoms: _27  and  _29
REMARK   15  A    between atoms: _29  and  _30
REMARK   16  A    between atoms: _32  and  _34
REMARK   17  A    between atoms: _34  and  _35
REMARK   18  A    between atoms: _34  and  _37
REMARK   19  A    between atoms: _37  and  _38
REMARK   20  A    between atoms: _38  and  _39
REMARK   21  A    between atoms: _44  and  _46
REMARK   22  A    between atoms: _46  and  _47
REMARK   23  A    between atoms: _49  and  _51
REMARK   24  A    between atoms: _51  and  _52
REMARK   25  A    between atoms: _51  and  _54
REMARK   26  A    between atoms: _54  and  _55
REMARK   27  A    between atoms: _60  and  _61
REMARK   28  A    between atoms: _63  and  _65
REMARK   29  A    between atoms: _65  and  _66
REMARK   30  A    between atoms: _65  and  _68
REMARK   31  A    between atoms: _68  and  _69
REMARK   32  A    between atoms: _74  and  _75
REMARK   33  A    between atoms: _77  and  _79
REMARK   34  A    between atoms: _79  and  _80
REMARK   35  A    between atoms: _79  and  _82
REMARK   36  A    between atoms: _82  and  _83
REMARK   37  A    between atoms: _86  and  _88
REMARK   38  A    between atoms: _88  and  _89
REMARK   39  A    between atoms: _88  and  _91
REMARK   40  A    between atoms: _94  and  _96
REMARK   41  A    between atoms: _96  and  _97
REMARK   42  A    between atoms: _96  and  _99
REMARK   43  A    between atoms: _99  and  _100
REMARK   44  A    between atoms: _103  and  _105
REMARK   45  A    between atoms: _105  and  _106
REMARK   46  A    between atoms: _105  and  _108
REMARK   47  A    between atoms: _108  and  _109
REMARK   48  A    between atoms: _112  and  _114
REMARK   49  A    between atoms: _114  and  _115
REMARK   50  A    between atoms: _117  and  _119
REMARK   51  A    between atoms: _119  and  _120
REMARK   52  A    between atoms: _119  and  _122
REMARK   53  A    between atoms: _122  and  _123
REMARK   54  A    between atoms: _125  and  _127
REMARK   55  A    between atoms: _127  and  _128
REMARK   56  A    between atoms: _127  and  _130
REMARK   57  A    between atoms: _130  and  _131
REMARK   58  A    between atoms: _133  and  _135
REMARK   59  A    between atoms: _135  and  _136
REMARK   60  A    between atoms: _135  and  _138
REMARK   61  A    between atoms: _138  and  _139
REMARK   62  A    between atoms: _144  and  _146
REMARK   63  A    between atoms: _146  and  _147
REMARK   64  A    between atoms: _146  and  _149
REMARK   65  A    between atoms: _153  and  _154
REMARK   66  A    between atoms: _159  and  _161
REMARK   67  A    between atoms: _161  and  _162
REMARK   68  A    between atoms: _161  and  _164
REMARK   69  A    between atoms: _164  and  _165
REMARK   70  A    between atoms: _170  and  _171
REMARK   71  A    between atoms: _173  and  _175
REMARK   72  A    between atoms: _175  and  _176
REMARK   73  A    between atoms: _175  and  _178
REMARK   74  A    between atoms: _178  and  _179
REMARK   75  A    between atoms: _182  and  _184
REMARK   76  A    between atoms: _184  and  _185
REMARK   77  A    between atoms: _184  and  _187
REMARK   78  A    between atoms: _187  and  _188
REMARK   79  A    between atoms: _188  and  _189
REMARK   80  A    between atoms: _194  and  _196
REMARK   81  A    between atoms: _196  and  _197
REMARK   82  A    between atoms: _199  and  _201
REMARK   83  A    between atoms: _201  and  _202
REMARK   84  A    between atoms: _201  and  _204
REMARK   85  A    between atoms: _204  and  _205
REMARK   86  A    between atoms: _205  and  _206
REMARK   87  A    between atoms: _206  and  _207
REMARK   88  A    between atoms: _207  and  _208
REMARK   89  A    between atoms: _212  and  _214
REMARK   90  A    between atoms: _214  and  _215
REMARK   91  A    between atoms: _214  and  _217
REMARK   92  A    between atoms: _217  and  _218
REMARK   93  A    between atoms: _228  and  _230
REMARK   94  A    between atoms: _230  and  _231
REMARK   95  A    between atoms: _230  and  _233
REMARK   96  A    between atoms: _233  and  _234
REMARK   97  A    between atoms: _237  and  _239
REMARK   98  A    between atoms: _239  and  _240
REMARK   99  A    between atoms: _239  and  _242
REMARK  100  A    between atoms: _242  and  _243
REMARK  101  A    between atoms: _243  and  _244
REMARK  102  A    between atoms: _244  and  _245
REMARK  103  A    between atoms: _245  and  _246
REMARK  104  A    between atoms: _250  and  _252
REMARK  105  A    between atoms: _252  and  _253
REMARK  106  A    between atoms: _252  and  _255
REMARK  107  A    between atoms: _255  and  _256
REMARK  108  A    between atoms: _262  and  _264
REMARK  109  A    between atoms: _264  and  _265
REMARK  110  A    between atoms: _264  and  _267
REMARK  111  A    between atoms: _267  and  _268
REMARK  112  A    between atoms: _274  and  _276
REMARK  113  A    between atoms: _276  and  _277
REMARK  114  A    between atoms: _276  and  _279
REMARK  115  A    between atoms: _279  and  _280
REMARK  116  A    between atoms: _283  and  _285
REMARK  117  A    between atoms: _285  and  _286
REMARK  118  A    between atoms: _285  and  _288
REMARK  119  A    between atoms: _288  and  _289
REMARK  120  A    between atoms: _291  and  _293
REMARK  121  A    between atoms: _293  and  _294
REMARK  122  A    between atoms: _293  and  _296
REMARK  123  A    between atoms: _296  and  _297
REMARK  124  A    between atoms: _307  and  _309
REMARK  125  A    between atoms: _309  and  _310
REMARK  126  A    between atoms: _312  and  _314
REMARK  127  A    between atoms: _314  and  _315
REMARK  128  A    between atoms: _314  and  _317
REMARK  129  A    between atoms: _317  and  _318
REMARK  130  A    between atoms: _321  and  _323
REMARK  131  A    between atoms: _323  and  _324
REMARK  132  A    between atoms: _323  and  _326
REMARK  133  A    between atoms: _326  and  _327
REMARK  134  A    between atoms: _330  and  _332
REMARK  135  A    between atoms: _332  and  _333
REMARK  136  A    between atoms: _335  and  _337
REMARK  137  A    between atoms: _337  and  _338
REMARK  138  A    between atoms: _337  and  _340
REMARK  139  A    between atoms: _340  and  _341
REMARK  140  A    between atoms: _344  and  _346
REMARK  141  A    between atoms: _346  and  _347
REMARK  142  A    between atoms: _350  and  _352
REMARK  143  A    between atoms: _352  and  _353
REMARK  144  A    between atoms: _352  and  _355
REMARK  145  A    between atoms: _355  and  _356
REMARK  146  A    between atoms: _361  and  _362
REMARK  147  A    between atoms: _364  and  _366
REMARK  148  A    between atoms: _366  and  _367
REMARK  149  A    between atoms: _370  and  _372
REMARK  150  A    between atoms: _372  and  _373
REMARK  151  A    between atoms: _372  and  _375
REMARK  152  A    between atoms: _375  and  _376
REMARK  153  A    between atoms: _376  and  _377
REMARK  154  A    between atoms: _380  and  _382
REMARK  155  A    between atoms: _382  and  _383
REMARK  156  A    between atoms: _382  and  _385
REMARK  157  A    between atoms: _385  and  _386
REMARK  158  A    between atoms: _389  and  _391
REMARK  159  A    between atoms: _391  and  _392
REMARK  160  A    between atoms: _395  and  _397
REMARK  161  A    between atoms: _397  and  _398
REMARK  162  A    between atoms: _397  and  _400
REMARK  163  A    between atoms: _400  and  _401
REMARK  164  A    between atoms: _401  and  _402
REMARK  165  A    between atoms: _402  and  _403
REMARK  166  A    between atoms: _412  and  _414
REMARK  167  A    between atoms: _414  and  _415
REMARK  168  A    between atoms: _414  and  _417
REMARK  169  A    between atoms: _417  and  _418
REMARK  170  A    between atoms: _421  and  _423
REMARK  171  A    between atoms: _423  and  _424
REMARK  172  A    between atoms: _426  and  _428
REMARK  173  A    between atoms: _428  and  _429
REMARK  174  A    between atoms: _428  and  _431
REMARK  175  A    between atoms: _431  and  _432
REMARK  176  A    between atoms: _442  and  _444
REMARK  177  A    between atoms: _444  and  _445
REMARK  178  A    between atoms: _444  and  _447
REMARK  179  A    between atoms: _447  and  _448
REMARK  180  A    between atoms: _453  and  _454
REMARK  181  A    between atoms: _456  and  _458
REMARK  182  A    between atoms: _458  and  _459
REMARK  183  A    between atoms: _458  and  _461
REMARK  184  A    between atoms: _461  and  _462
REMARK  185  A    between atoms: _467  and  _468
REMARK  186  A    between atoms: _470  and  _472
REMARK  187  A    between atoms: _472  and  _473
REMARK  188  A    between atoms: _472  and  _475
REMARK  189  A    between atoms: _475  and  _476
REMARK  190  A    between atoms: _476  and  _477
REMARK  191  A    between atoms: _477  and  _478
REMARK  192  A    between atoms: _478  and  _479
REMARK  193  A    between atoms: _483  and  _485
REMARK  194  A    between atoms: _485  and  _486
REMARK  195  A    between atoms: _485  and  _488
REMARK  196  A    between atoms: _488  and  _489
REMARK  197  A    between atoms: _492  and  _494
REMARK  198  A    between atoms: _494  and  _495
REMARK  199  A    between atoms: _494  and  _497
REMARK  200  A    between atoms: _500  and  _502
REMARK  201  A    between atoms: _502  and  _503
REMARK  202  A    between atoms: _502  and  _505
REMARK  203  A    between atoms: _505  and  _506
REMARK  204  A    between atoms: _509  and  _511
REMARK  205  A    between atoms: _511  and  _512
REMARK  206  A    between atoms: _511  and  _514
REMARK  207  A    between atoms: _514  and  _515
REMARK  208  A    between atoms: _517  and  _519
REMARK  209  A    between atoms: _519  and  _520
REMARK  210  A    between atoms: _522  and  _524
REMARK  211  A    between atoms: _524  and  _525
REMARK  212  A    between atoms: _524  and  _527
REMARK  213  A    between atoms: _527  and  _528
REMARK  214  A    between atoms: _531  and  _533
REMARK  215  A    between atoms: _533  and  _534
REMARK  216  A    between atoms: _533  and  _536
REMARK  217  A    between atoms: _536  and  _537
REMARK  218  A    between atoms: _540  and  _542
REMARK  219  A    between atoms: _542  and  _543
REMARK  220  A    between atoms: _542  and  _545
REMARK  221  A    between atoms: _545  and  _546
REMARK  222  A    between atoms: _551  and  _553
REMARK  223  A    between atoms: _553  and  _554
REMARK  224  A    between atoms: _553  and  _556
REMARK  225  A    between atoms: _556  and  _557
REMARK  226  A    between atoms: _560  and  _562
REMARK  227  A    between atoms: _562  and  _563
REMARK  228  A    between atoms: _562  and  _565
REMARK  229  A    between atoms: _565  and  _566
REMARK  230  A    between atoms: _566  and  _567
REMARK  231  A    between atoms: _567  and  _568
REMARK  232  A    between atoms: _577  and  _579
REMARK  233  A    between atoms: _579  and  _580
REMARK  234  A    between atoms: _579  and  _582
REMARK  235  A    between atoms: _582  and  _583
REMARK  236  A    between atoms: _586  and  _588
REMARK  237  A    between atoms: _588  and  _589
REMARK  238  A    between atoms: _588  and  _591
REMARK  239  A    between atoms: _591  and  _592
REMARK  240  A    between atoms: _595  and  _597
REMARK  241  A    between atoms: _597  and  _598
REMARK  242  A    between atoms: _600  and  _602
REMARK  243  A    between atoms: _602  and  _603
REMARK  244  A    between atoms: _602  and  _605
REMARK  245  A    between atoms: _605  and  _606
REMARK  246  A    between atoms: _606  and  _607
REMARK  247  A    between atoms: _607  and  _608
REMARK  248  A    between atoms: _617  and  _619
REMARK  249  A    between atoms: _619  and  _620
REMARK  250  A    between atoms: _619  and  _622
REMARK  251  A    between atoms: _622  and  _623
REMARK  252  A    between atoms: _629  and  _631
REMARK  253  A    between atoms: _631  and  _632
REMARK  254  A    between atoms: _635  and  _637
REMARK  255  A    between atoms: _637  and  _638
REMARK  256  A    between atoms: _637  and  _640
REMARK  257  A    between atoms: _640  and  _641
REMARK  258  A    between atoms: _644  and  _646
REMARK  259  A    between atoms: _646  and  _647
REMARK  260  A    between atoms: _646  and  _649
REMARK  261  A    between atoms: _649  and  _650
REMARK  262  A    between atoms: _652  and  _654
REMARK  263  A    between atoms: _654  and  _655
REMARK  264  A    between atoms: _654  and  _657
REMARK  265  A    between atoms: _657  and  _658
REMARK  266  A    between atoms: _658  and  _659
REMARK  267  A    between atoms: _664  and  _666
REMARK  268  A    between atoms: _666  and  _667
REMARK  269  A    between atoms: _666  and  _669
REMARK  270  A    between atoms: _669  and  _670
REMARK  271  A    between atoms: _672  and  _674
REMARK  272  A    between atoms: _674  and  _675
REMARK  273  A    between atoms: _674  and  _677
REMARK  274  A    between atoms: _677  and  _678
REMARK  275  A    between atoms: _680  and  _682
REMARK  276  A    between atoms: _682  and  _683
REMARK  277  A    between atoms: _682  and  _685
REMARK  278  A    between atoms: _685  and  _686
REMARK  279  A    between atoms: _689  and  _691
REMARK  280  A    between atoms: _691  and  _692
REMARK  281  A    between atoms: _691  and  _694
REMARK  282  A    between atoms: _697  and  _699
REMARK  283  A    between atoms: _699  and  _700
REMARK  284  A    between atoms: _702  and  _704
REMARK  285  A    between atoms: _704  and  _705
REMARK  286  A    between atoms: _708  and  _710
REMARK  287  A    between atoms: _710  and  _711
REMARK  288  A    between atoms: _710  and  _713
REMARK  289  A    between atoms: _716  and  _718
REMARK  290  A    between atoms: _718  and  _719
REMARK  291  A    between atoms: _718  and  _721
REMARK  292  A    between atoms: _721  and  _722
REMARK  293  A    between atoms: _722  and  _723
REMARK  294  A    between atoms: _725  and  _727
REMARK  295  A    between atoms: _727  and  _728
REMARK  296  A    between atoms: _727  and  _730
REMARK  297  A    between atoms: _730  and  _731
REMARK  298  A    between atoms: _731  and  _732
REMARK                            x       y       z     vdW  Elec       q    Type
REMARK                         _______ _______ _______ _____ _____    ______ ____
ROOT
ATOM      1  O   HOH     1     -12.395   3.616  28.460  0.00  0.00    +0.000 OA
ENDROOT
TORSDOF 0
REMARK  Name = ../refined-set-2016/2vkm/2vkm_pocket.pdb
REMARK  298 active torsions:
REMARK  status: ('A' for Active; 'I' for Inactive)
REMARK    1  A    between atoms: _1  and  _3
REMARK    2  A    between atoms: _3  and  _4
REMARK    3  A    between atoms: _6  and  _8
REMARK    4  A    between atoms: _8  and  _9
REMARK    5  A    between atoms: _8  and  _11
REMARK    6  A    between atoms: _11  and  _12
REMARK    7  A    between atoms: _12  and  _13
REMARK    8  A    between atoms: _13  and  _14
REMARK    9  A    between atoms: _14  and  _15
REMARK   10  A    between atoms: _19  and  _21
REMARK   11  A    between atoms: _21  and  _22
REMARK   12  A    between atoms: _21  and  _24
REMARK   13  A    between atoms: _24  and  _25
REMARK   14  A    between atoms: _27  and  _29
REMARK   15  A    between atoms: _29  and  _30
REMARK   16  A    between atoms: _32  and  _34
REMARK   17  A    between atoms: _34  and  _35
REMARK   18  A    between atoms: _34  and  _37
REMARK   19  A    between atoms: _37  and  _38
REMARK   20  A    between atoms: _38  and  _39
REMARK   21  A    between atoms: _44  and  _46
REMARK   22  A    between atoms: _46  and  _47
REMARK   23  A    between atoms: _49  and  _51
REMARK   24  A    between atoms: _51  and  _52
REMARK   25  A    between atoms: _51  and  _54
REMARK   26  A    between atoms: _54  and  _55
REMARK   27  A    between atoms: _60  and  _61
REMARK   28  A    between atoms: _63  and  _65
REMARK   29  A    between atoms: _65  and  _66
REMARK   30  A    between atoms: _65  and  _68
REMARK   31  A    between atoms: _68  and  _69
REMARK   32  A    between atoms: _74  and  _75
REMARK   33  A    between atoms: _77  and  _79
REMARK   34  A    between atoms: _79  and  _80
REMARK   35  A    between atoms: _79  and  _82
REMARK   36  A    between atoms: _82  and  _83
REMARK   37  A    between atoms: _86  and  _88
REMARK   38  A    between atoms: _88  and  _89
REMARK   39  A    between atoms: _88  and  _91
REMARK   40  A    between atoms: _94  and  _96
REMARK   41  A    between atoms: _96  and  _97
REMARK   42  A    between atoms: _96  and  _99
REMARK   43  A    between atoms: _99  and  _100
REMARK   44  A    between atoms: _103  and  _105
REMARK   45  A    between atoms: _105  and  _106
REMARK   46  A    between atoms: _105  and  _108
REMARK   47  A    between atoms: _108  and  _109
REMARK   48  A    between atoms: _112  and  _114
REMARK   49  A    between atoms: _114  and  _115
REMARK   50  A    between atoms: _117  and  _119
REMARK   51  A    between atoms: _119  and  _120
REMARK   52  A    between atoms: _119  and  _122
REMARK   53  A    between atoms: _122  and  _123
REMARK   54  A    between atoms: _125  and  _127
REMARK   55  A    between atoms: _127  and  _128
REMARK   56  A    between atoms: _127  and  _130
REMARK   57  A    between atoms: _130  and  _131
REMARK   58  A    between atoms: _133  and  _135
REMARK   59  A    between atoms: _135  and  _136
REMARK   60  A    between atoms: _135  and  _138
REMARK   61  A    between atoms: _138  and  _139
REMARK   62  A    between atoms: _144  and  _146
REMARK   63  A    between atoms: _146  and  _147
REMARK   64  A    between atoms: _146  and  _149
REMARK   65  A    between atoms: _153  and  _154
REMARK   66  A    between atoms: _159  and  _161
REMARK   67  A    between atoms: _161  and  _162
REMARK   68  A    between atoms: _161  and  _164
REMARK   69  A    between atoms: _164  and  _165
REMARK   70  A    between atoms: _170  and  _171
REMARK   71  A    between atoms: _173  and  _175
REMARK   72  A    between atoms: _175  and  _176
REMARK   73  A    between atoms: _175  and  _178
REMARK   74  A    between atoms: _178  and  _179
REMARK   75  A    between atoms: _182  and  _184
REMARK   76  A    between atoms: _184  and  _185
REMARK   77  A    between atoms: _184  and  _187
REMARK   78  A    between atoms: _187  and  _188
REMARK   79  A    between atoms: _188  and  _189
REMARK   80  A    between atoms: _194  and  _196
REMARK   81  A    between atoms: _196  and  _197
REMARK   82  A    between atoms: _199  and  _201
REMARK   83  A    between atoms: _201  and  _202
REMARK   84  A    between atoms: _201  and  _204
REMARK   85  A    between atoms: _204  and  _205
REMARK   86  A    between atoms: _205  and  _206
REMARK   87  A    between atoms: _206  and  _207
REMARK   88  A    between atoms: _207  and  _208
REMARK   89  A    between atoms: _212  and  _214
REMARK   90  A    between atoms: _214  and  _215
REMARK   91  A    between atoms: _214  and  _217
REMARK   92  A    between atoms: _217  and  _218
REMARK   93  A    between atoms: _228  and  _230
REMARK   94  A    between atoms: _230  and  _231
REMARK   95  A    between atoms: _230  and  _233
REMARK   96  A    between atoms: _233  and  _234
REMARK   97  A    between atoms: _237  and  _239
REMARK   98  A    between atoms: _239  and  _240
REMARK   99  A    between atoms: _239  and  _242
REMARK  100  A    between atoms: _242  and  _243
REMARK  101  A    between atoms: _243  and  _244
REMARK  102  A    between atoms: _244  and  _245
REMARK  103  A    between atoms: _245  and  _246
REMARK  104  A    between atoms: _250  and  _252
REMARK  105  A    between atoms: _252  and  _253
REMARK  106  A    between atoms: _252  and  _255
REMARK  107  A    between atoms: _255  and  _256
REMARK  108  A    between atoms: _262  and  _264
REMARK  109  A    between atoms: _264  and  _265
REMARK  110  A    between atoms: _264  and  _267
REMARK  111  A    between atoms: _267  and  _268
REMARK  112  A    between atoms: _274  and  _276
REMARK  113  A    between atoms: _276  and  _277
REMARK  114  A    between atoms: _276  and  _279
REMARK  115  A    between atoms: _279  and  _280
REMARK  116  A    between atoms: _283  and  _285
REMARK  117  A    between atoms: _285  and  _286
REMARK  118  A    between atoms: _285  and  _288
REMARK  119  A    between atoms: _288  and  _289
REMARK  120  A    between atoms: _291  and  _293
REMARK  121  A    between atoms: _293  and  _294
REMARK  122  A    between atoms: _293  and  _296
REMARK  123  A    between atoms: _296  and  _297
REMARK  124  A    between atoms: _307  and  _309
REMARK  125  A    between atoms: _309  and  _310
REMARK  126  A    between atoms: _312  and  _314
REMARK  127  A    between atoms: _314  and  _315
REMARK  128  A    between atoms: _314  and  _317
REMARK  129  A    between atoms: _317  and  _318
REMARK  130  A    between atoms: _321  and  _323
REMARK  131  A    between atoms: _323  and  _324
REMARK  132  A    between atoms: _323  and  _326
REMARK  133  A    between atoms: _326  and  _327
REMARK  134  A    between atoms: _330  and  _332
REMARK  135  A    between atoms: _332  and  _333
REMARK  136  A    between atoms: _335  and  _337
REMARK  137  A    between atoms: _337  and  _338
REMARK  138  A    between atoms: _337  and  _340
REMARK  139  A    between atoms: _340  and  _341
REMARK  140  A    between atoms: _344  and  _346
REMARK  141  A    between atoms: _346  and  _347
REMARK  142  A    between atoms: _350  and  _352
REMARK  143  A    between atoms: _352  and  _353
REMARK  144  A    between atoms: _352  and  _355
REMARK  145  A    between atoms: _355  and  _356
REMARK  146  A    between atoms: _361  and  _362
REMARK  147  A    between atoms: _364  and  _366
REMARK  148  A    between atoms: _366  and  _367
REMARK  149  A    between atoms: _370  and  _372
REMARK  150  A    between atoms: _372  and  _373
REMARK  151  A    between atoms: _372  and  _375
REMARK  152  A    between atoms: _375  and  _376
REMARK  153  A    between atoms: _376  and  _377
REMARK  154  A    between atoms: _380  and  _382
REMARK  155  A    between atoms: _382  and  _383
REMARK  156  A    between atoms: _382  and  _385
REMARK  157  A    between atoms: _385  and  _386
REMARK  158  A    between atoms: _389  and  _391
REMARK  159  A    between atoms: _391  and  _392
REMARK  160  A    between atoms: _395  and  _397
REMARK  161  A    between atoms: _397  and  _398
REMARK  162  A    between atoms: _397  and  _400
REMARK  163  A    between atoms: _400  and  _401
REMARK  164  A    between atoms: _401  and  _402
REMARK  165  A    between atoms: _402  and  _403
REMARK  166  A    between atoms: _412  and  _414
REMARK  167  A    between atoms: _414  and  _415
REMARK  168  A    between atoms: _414  and  _417
REMARK  169  A    between atoms: _417  and  _418
REMARK  170  A    between atoms: _421  and  _423
REMARK  171  A    between atoms: _423  and  _424
REMARK  172  A    between atoms: _426  and  _428
REMARK  173  A    between atoms: _428  and  _429
REMARK  174  A    between atoms: _428  and  _431
REMARK  175  A    between atoms: _431  and  _432
REMARK  176  A    between atoms: _442  and  _444
REMARK  177  A    between atoms: _444  and  _445
REMARK  178  A    between atoms: _444  and  _447
REMARK  179  A    between atoms: _447  and  _448
REMARK  180  A    between atoms: _453  and  _454
REMARK  181  A    between atoms: _456  and  _458
REMARK  182  A    between atoms: _458  and  _459
REMARK  183  A    between atoms: _458  and  _461
REMARK  184  A    between atoms: _461  and  _462
REMARK  185  A    between atoms: _467  and  _468
REMARK  186  A    between atoms: _470  and  _472
REMARK  187  A    between atoms: _472  and  _473
REMARK  188  A    between atoms: _472  and  _475
REMARK  189  A    between atoms: _475  and  _476
REMARK  190  A    between atoms: _476  and  _477
REMARK  191  A    between atoms: _477  and  _478
REMARK  192  A    between atoms: _478  and  _479
REMARK  193  A    between atoms: _483  and  _485
REMARK  194  A    between atoms: _485  and  _486
REMARK  195  A    between atoms: _485  and  _488
REMARK  196  A    between atoms: _488  and  _489
REMARK  197  A    between atoms: _492  and  _494
REMARK  198  A    between atoms: _494  and  _495
REMARK  199  A    between atoms: _494  and  _497
REMARK  200  A    between atoms: _500  and  _502
REMARK  201  A    between atoms: _502  and  _503
REMARK  202  A    between atoms: _502  and  _505
REMARK  203  A    between atoms: _505  and  _506
REMARK  204  A    between atoms: _509  and  _511
REMARK  205  A    between atoms: _511  and  _512
REMARK  206  A    between atoms: _511  and  _514
REMARK  207  A    between atoms: _514  and  _515
REMARK  208  A    between atoms: _517  and  _519
REMARK  209  A    between atoms: _519  and  _520
REMARK  210  A    between atoms: _522  and  _524
REMARK  211  A    between atoms: _524  and  _525
REMARK  212  A    between atoms: _524  and  _527
REMARK  213  A    between atoms: _527  and  _528
REMARK  214  A    between atoms: _531  and  _533
REMARK  215  A    between atoms: _533  and  _534
REMARK  216  A    between atoms: _533  and  _536
REMARK  217  A    between atoms: _536  and  _537
REMARK  218  A    between atoms: _540  and  _542
REMARK  219  A    between atoms: _542  and  _543
REMARK  220  A    between atoms: _542  and  _545
REMARK  221  A    between atoms: _545  and  _546
REMARK  222  A    between atoms: _551  and  _553
REMARK  223  A    between atoms: _553  and  _554
REMARK  224  A    between atoms: _553  and  _556
REMARK  225  A    between atoms: _556  and  _557
REMARK  226  A    between atoms: _560  and  _562
REMARK  227  A    between atoms: _562  and  _563
REMARK  228  A    between atoms: _562  and  _565
REMARK  229  A    between atoms: _565  and  _566
REMARK  230  A    between atoms: _566  and  _567
REMARK  231  A    between atoms: _567  and  _568
REMARK  232  A    between atoms: _577  and  _579
REMARK  233  A    between atoms: _579  and  _580
REMARK  234  A    between atoms: _579  and  _582
REMARK  235  A    between atoms: _582  and  _583
REMARK  236  A    between atoms: _586  and  _588
REMARK  237  A    between atoms: _588  and  _589
REMARK  238  A    between atoms: _588  and  _591
REMARK  239  A    between atoms: _591  and  _592
REMARK  240  A    between atoms: _595  and  _597
REMARK  241  A    between atoms: _597  and  _598
REMARK  242  A    between atoms: _600  and  _602
REMARK  243  A    between atoms: _602  and  _603
REMARK  244  A    between atoms: _602  and  _605
REMARK  245  A    between atoms: _605  and  _606
REMARK  246  A    between atoms: _606  and  _607
REMARK  247  A    between atoms: _607  and  _608
REMARK  248  A    between atoms: _617  and  _619
REMARK  249  A    between atoms: _619  and  _620
REMARK  250  A    between atoms: _619  and  _622
REMARK  251  A    between atoms: _622  and  _623
REMARK  252  A    between atoms: _629  and  _631
REMARK  253  A    between atoms: _631  and  _632
REMARK  254  A    between atoms: _635  and  _637
REMARK  255  A    between atoms: _637  and  _638
REMARK  256  A    between atoms: _637  and  _640
REMARK  257  A    between atoms: _640  and  _641
REMARK  258  A    between atoms: _644  and  _646
REMARK  259  A    between atoms: _646  and  _647
REMARK  260  A    between atoms: _646  and  _649
REMARK  261  A    between atoms: _649  and  _650
REMARK  262  A    between atoms: _652  and  _654
REMARK  263  A    between atoms: _654  and  _655
REMARK  264  A    between atoms: _654  and  _657
REMARK  265  A    between atoms: _657  and  _658
REMARK  266  A    between atoms: _658  and  _659
REMARK  267  A    between atoms: _664  and  _666
REMARK  268  A    between atoms: _666  and  _667
REMARK  269  A    between atoms: _666  and  _669
REMARK  270  A    between atoms: _669  and  _670
REMARK  271  A    between atoms: _672  and  _674
REMARK  272  A    between atoms: _674  and  _675
REMARK  273  A    between atoms: _674  and  _677
REMARK  274  A    between atoms: _677  and  _678
REMARK  275  A    between atoms: _680  and  _682
REMARK  276  A    between atoms: _682  and  _683
REMARK  277  A    between atoms: _682  and  _685
REMARK  278  A    between atoms: _685  and  _686
REMARK  279  A    between atoms: _689  and  _691
REMARK  280  A    between atoms: _691  and  _692
REMARK  281  A    between atoms: _691  and  _694
REMARK  282  A    between atoms: _697  and  _699
REMARK  283  A    between atoms: _699  and  _700
REMARK  284  A    between atoms: _702  and  _704
REMARK  285  A    between atoms: _704  and  _705
REMARK  286  A    between atoms: _708  and  _710
REMARK  287  A    between atoms: _710  and  _711
REMARK  288  A    between atoms: _710  and  _713
REMARK  289  A    between atoms: _716  and  _718
REMARK  290  A    between atoms: _718  and  _719
REMARK  291  A    between atoms: _718  and  _721
REMARK  292  A    between atoms: _721  and  _722
REMARK  293  A    between atoms: _722  and  _723
REMARK  294  A    between atoms: _725  and  _727
REMARK  295  A    between atoms: _727  and  _728
REMARK  296  A    between atoms: _727  and  _730
REMARK  297  A    between atoms: _730  and  _731
REMARK  298  A    between atoms: _731  and  _732
REMARK                            x       y       z     vdW  Elec       q    Type
REMARK                         _______ _______ _______ _____ _____    ______ ____
ROOT
ATOM      1  O   HOH     1       1.984  -5.070  38.403  0.00  0.00    +0.000 OA
ENDROOT
TORSDOF 0
REMARK  Name = ../refined-set-2016/2vkm/2vkm_pocket.pdb
REMARK  298 active torsions:
REMARK  status: ('A' for Active; 'I' for Inactive)
REMARK    1  A    between atoms: _1  and  _3
REMARK    2  A    between atoms: _3  and  _4
REMARK    3  A    between atoms: _6  and  _8
REMARK    4  A    between atoms: _8  and  _9
REMARK    5  A    between atoms: _8  and  _11
REMARK    6  A    between atoms: _11  and  _12
REMARK    7  A    between atoms: _12  and  _13
REMARK    8  A    between atoms: _13  and  _14
REMARK    9  A    between atoms: _14  and  _15
REMARK   10  A    between atoms: _19  and  _21
REMARK   11  A    between atoms: _21  and  _22
REMARK   12  A    between atoms: _21  and  _24
REMARK   13  A    between atoms: _24  and  _25
REMARK   14  A    between atoms: _27  and  _29
REMARK   15  A    between atoms: _29  and  _30
REMARK   16  A    between atoms: _32  and  _34
REMARK   17  A    between atoms: _34  and  _35
REMARK   18  A    between atoms: _34  and  _37
REMARK   19  A    between atoms: _37  and  _38
REMARK   20  A    between atoms: _38  and  _39
REMARK   21  A    between atoms: _44  and  _46
REMARK   22  A    between atoms: _46  and  _47
REMARK   23  A    between atoms: _49  and  _51
REMARK   24  A    between atoms: _51  and  _52
REMARK   25  A    between atoms: _51  and  _54
REMARK   26  A    between atoms: _54  and  _55
REMARK   27  A    between atoms: _60  and  _61
REMARK   28  A    between atoms: _63  and  _65
REMARK   29  A    between atoms: _65  and  _66
REMARK   30  A    between atoms: _65  and  _68
REMARK   31  A    between atoms: _68  and  _69
REMARK   32  A    between atoms: _74  and  _75
REMARK   33  A    between atoms: _77  and  _79
REMARK   34  A    between atoms: _79  and  _80
REMARK   35  A    between atoms: _79  and  _82
REMARK   36  A    between atoms: _82  and  _83
REMARK   37  A    between atoms: _86  and  _88
REMARK   38  A    between atoms: _88  and  _89
REMARK   39  A    between atoms: _88  and  _91
REMARK   40  A    between atoms: _94  and  _96
REMARK   41  A    between atoms: _96  and  _97
REMARK   42  A    between atoms: _96  and  _99
REMARK   43  A    between atoms: _99  and  _100
REMARK   44  A    between atoms: _103  and  _105
REMARK   45  A    between atoms: _105  and  _106
REMARK   46  A    between atoms: _105  and  _108
REMARK   47  A    between atoms: _108  and  _109
REMARK   48  A    between atoms: _112  and  _114
REMARK   49  A    between atoms: _114  and  _115
REMARK   50  A    between atoms: _117  and  _119
REMARK   51  A    between atoms: _119  and  _120
REMARK   52  A    between atoms: _119  and  _122
REMARK   53  A    between atoms: _122  and  _123
REMARK   54  A    between atoms: _125  and  _127
REMARK   55  A    between atoms: _127  and  _128
REMARK   56  A    between atoms: _127  and  _130
REMARK   57  A    between atoms: _130  and  _131
REMARK   58  A    between atoms: _133  and  _135
REMARK   59  A    between atoms: _135  and  _136
REMARK   60  A    between atoms: _135  and  _138
REMARK   61  A    between atoms: _138  and  _139
REMARK   62  A    between atoms: _144  and  _146
REMARK   63  A    between atoms: _146  and  _147
REMARK   64  A    between atoms: _146  and  _149
REMARK   65  A    between atoms: _153  and  _154
REMARK   66  A    between atoms: _159  and  _161
REMARK   67  A    between atoms: _161  and  _162
REMARK   68  A    between atoms: _161  and  _164
REMARK   69  A    between atoms: _164  and  _165
REMARK   70  A    between atoms: _170  and  _171
REMARK   71  A    between atoms: _173  and  _175
REMARK   72  A    between atoms: _175  and  _176
REMARK   73  A    between atoms: _175  and  _178
REMARK   74  A    between atoms: _178  and  _179
REMARK   75  A    between atoms: _182  and  _184
REMARK   76  A    between atoms: _184  and  _185
REMARK   77  A    between atoms: _184  and  _187
REMARK   78  A    between atoms: _187  and  _188
REMARK   79  A    between atoms: _188  and  _189
REMARK   80  A    between atoms: _194  and  _196
REMARK   81  A    between atoms: _196  and  _197
REMARK   82  A    between atoms: _199  and  _201
REMARK   83  A    between atoms: _201  and  _202
REMARK   84  A    between atoms: _201  and  _204
REMARK   85  A    between atoms: _204  and  _205
REMARK   86  A    between atoms: _205  and  _206
REMARK   87  A    between atoms: _206  and  _207
REMARK   88  A    between atoms: _207  and  _208
REMARK   89  A    between atoms: _212  and  _214
REMARK   90  A    between atoms: _214  and  _215
REMARK   91  A    between atoms: _214  and  _217
REMARK   92  A    between atoms: _217  and  _218
REMARK   93  A    between atoms: _228  and  _230
REMARK   94  A    between atoms: _230  and  _231
REMARK   95  A    between atoms: _230  and  _233
REMARK   96  A    between atoms: _233  and  _234
REMARK   97  A    between atoms: _237  and  _239
REMARK   98  A    between atoms: _239  and  _240
REMARK   99  A    between atoms: _239  and  _242
REMARK  100  A    between atoms: _242  and  _243
REMARK  101  A    between atoms: _243  and  _244
REMARK  102  A    between atoms: _244  and  _245
REMARK  103  A    between atoms: _245  and  _246
REMARK  104  A    between atoms: _250  and  _252
REMARK  105  A    between atoms: _252  and  _253
REMARK  106  A    between atoms: _252  and  _255
REMARK  107  A    between atoms: _255  and  _256
REMARK  108  A    between atoms: _262  and  _264
REMARK  109  A    between atoms: _264  and  _265
REMARK  110  A    between atoms: _264  and  _267
REMARK  111  A    between atoms: _267  and  _268
REMARK  112  A    between atoms: _274  and  _276
REMARK  113  A    between atoms: _276  and  _277
REMARK  114  A    between atoms: _276  and  _279
REMARK  115  A    between atoms: _279  and  _280
REMARK  116  A    between atoms: _283  and  _285
REMARK  117  A    between atoms: _285  and  _286
REMARK  118  A    between atoms: _285  and  _288
REMARK  119  A    between atoms: _288  and  _289
REMARK  120  A    between atoms: _291  and  _293
REMARK  121  A    between atoms: _293  and  _294
REMARK  122  A    between atoms: _293  and  _296
REMARK  123  A    between atoms: _296  and  _297
REMARK  124  A    between atoms: _307  and  _309
REMARK  125  A    between atoms: _309  and  _310
REMARK  126  A    between atoms: _312  and  _314
REMARK  127  A    between atoms: _314  and  _315
REMARK  128  A    between atoms: _314  and  _317
REMARK  129  A    between atoms: _317  and  _318
REMARK  130  A    between atoms: _321  and  _323
REMARK  131  A    between atoms: _323  and  _324
REMARK  132  A    between atoms: _323  and  _326
REMARK  133  A    between atoms: _326  and  _327
REMARK  134  A    between atoms: _330  and  _332
REMARK  135  A    between atoms: _332  and  _333
REMARK  136  A    between atoms: _335  and  _337
REMARK  137  A    between atoms: _337  and  _338
REMARK  138  A    between atoms: _337  and  _340
REMARK  139  A    between atoms: _340  and  _341
REMARK  140  A    between atoms: _344  and  _346
REMARK  141  A    between atoms: _346  and  _347
REMARK  142  A    between atoms: _350  and  _352
REMARK  143  A    between atoms: _352  and  _353
REMARK  144  A    between atoms: _352  and  _355
REMARK  145  A    between atoms: _355  and  _356
REMARK  146  A    between atoms: _361  and  _362
REMARK  147  A    between atoms: _364  and  _366
REMARK  148  A    between atoms: _366  and  _367
REMARK  149  A    between atoms: _370  and  _372
REMARK  150  A    between atoms: _372  and  _373
REMARK  151  A    between atoms: _372  and  _375
REMARK  152  A    between atoms: _375  and  _376
REMARK  153  A    between atoms: _376  and  _377
REMARK  154  A    between atoms: _380  and  _382
REMARK  155  A    between atoms: _382  and  _383
REMARK  156  A    between atoms: _382  and  _385
REMARK  157  A    between atoms: _385  and  _386
REMARK  158  A    between atoms: _389  and  _391
REMARK  159  A    between atoms: _391  and  _392
REMARK  160  A    between atoms: _395  and  _397
REMARK  161  A    between atoms: _397  and  _398
REMARK  162  A    between atoms: _397  and  _400
REMARK  163  A    between atoms: _400  and  _401
REMARK  164  A    between atoms: _401  and  _402
REMARK  165  A    between atoms: _402  and  _403
REMARK  166  A    between atoms: _412  and  _414
REMARK  167  A    between atoms: _414  and  _415
REMARK  168  A    between atoms: _414  and  _417
REMARK  169  A    between atoms: _417  and  _418
REMARK  170  A    between atoms: _421  and  _423
REMARK  171  A    between atoms: _423  and  _424
REMARK  172  A    between atoms: _426  and  _428
REMARK  173  A    between atoms: _428  and  _429
REMARK  174  A    between atoms: _428  and  _431
REMARK  175  A    between atoms: _431  and  _432
REMARK  176  A    between atoms: _442  and  _444
REMARK  177  A    between atoms: _444  and  _445
REMARK  178  A    between atoms: _444  and  _447
REMARK  179  A    between atoms: _447  and  _448
REMARK  180  A    between atoms: _453  and  _454
REMARK  181  A    between atoms: _456  and  _458
REMARK  182  A    between atoms: _458  and  _459
REMARK  183  A    between atoms: _458  and  _461
REMARK  184  A    between atoms: _461  and  _462
REMARK  185  A    between atoms: _467  and  _468
REMARK  186  A    between atoms: _470  and  _472
REMARK  187  A    between atoms: _472  and  _473
REMARK  188  A    between atoms: _472  and  _475
REMARK  189  A    between atoms: _475  and  _476
REMARK  190  A    between atoms: _476  and  _477
REMARK  191  A    between atoms: _477  and  _478
REMARK  192  A    between atoms: _478  and  _479
REMARK  193  A    between atoms: _483  and  _485
REMARK  194  A    between atoms: _485  and  _486
REMARK  195  A    between atoms: _485  and  _488
REMARK  196  A    between atoms: _488  and  _489
REMARK  197  A    between atoms: _492  and  _494
REMARK  198  A    between atoms: _494  and  _495
REMARK  199  A    between atoms: _494  and  _497
REMARK  200  A    between atoms: _500  and  _502
REMARK  201  A    between atoms: _502  and  _503
REMARK  202  A    between atoms: _502  and  _505
REMARK  203  A    between atoms: _505  and  _506
REMARK  204  A    between atoms: _509  and  _511
REMARK  205  A    between atoms: _511  and  _512
REMARK  206  A    between atoms: _511  and  _514
REMARK  207  A    between atoms: _514  and  _515
REMARK  208  A    between atoms: _517  and  _519
REMARK  209  A    between atoms: _519  and  _520
REMARK  210  A    between atoms: _522  and  _524
REMARK  211  A    between atoms: _524  and  _525
REMARK  212  A    between atoms: _524  and  _527
REMARK  213  A    between atoms: _527  and  _528
REMARK  214  A    between atoms: _531  and  _533
REMARK  215  A    between atoms: _533  and  _534
REMARK  216  A    between atoms: _533  and  _536
REMARK  217  A    between atoms: _536  and  _537
REMARK  218  A    between atoms: _540  and  _542
REMARK  219  A    between atoms: _542  and  _543
REMARK  220  A    between atoms: _542  and  _545
REMARK  221  A    between atoms: _545  and  _546
REMARK  222  A    between atoms: _551  and  _553
REMARK  223  A    between atoms: _553  and  _554
REMARK  224  A    between atoms: _553  and  _556
REMARK  225  A    between atoms: _556  and  _557
REMARK  226  A    between atoms: _560  and  _562
REMARK  227  A    between atoms: _562  and  _563
REMARK  228  A    between atoms: _562  and  _565
REMARK  229  A    between atoms: _565  and  _566
REMARK  230  A    between atoms: _566  and  _567
REMARK  231  A    between atoms: _567  and  _568
REMARK  232  A    between atoms: _577  and  _579
REMARK  233  A    between atoms: _579  and  _580
REMARK  234  A    between atoms: _579  and  _582
REMARK  235  A    between atoms: _582  and  _583
REMARK  236  A    between atoms: _586  and  _588
REMARK  237  A    between atoms: _588  and  _589
REMARK  238  A    between atoms: _588  and  _591
REMARK  239  A    between atoms: _591  and  _592
REMARK  240  A    between atoms: _595  and  _597
REMARK  241  A    between atoms: _597  and  _598
REMARK  242  A    between atoms: _600  and  _602
REMARK  243  A    between atoms: _602  and  _603
REMARK  244  A    between atoms: _602  and  _605
REMARK  245  A    between atoms: _605  and  _606
REMARK  246  A    between atoms: _606  and  _607
REMARK  247  A    between atoms: _607  and  _608
REMARK  248  A    between atoms: _617  and  _619
REMARK  249  A    between atoms: _619  and  _620
REMARK  250  A    between atoms: _619  and  _622
REMARK  251  A    between atoms: _622  and  _623
REMARK  252  A    between atoms: _629  and  _631
REMARK  253  A    between atoms: _631  and  _632
REMARK  254  A    between atoms: _635  and  _637
REMARK  255  A    between atoms: _637  and  _638
REMARK  256  A    between atoms: _637  and  _640
REMARK  257  A    between atoms: _640  and  _641
REMARK  258  A    between atoms: _644  and  _646
REMARK  259  A    between atoms: _646  and  _647
REMARK  260  A    between atoms: _646  and  _649
REMARK  261  A    between atoms: _649  and  _650
REMARK  262  A    between atoms: _652  and  _654
REMARK  263  A    between atoms: _654  and  _655
REMARK  264  A    between atoms: _654  and  _657
REMARK  265  A    between atoms: _657  and  _658
REMARK  266  A    between atoms: _658  and  _659
REMARK  267  A    between atoms: _664  and  _666
REMARK  268  A    between atoms: _666  and  _667
REMARK  269  A    between atoms: _666  and  _669
REMARK  270  A    between atoms: _669  and  _670
REMARK  271  A    between atoms: _672  and  _674
REMARK  272  A    between atoms: _674  and  _675
REMARK  273  A    between atoms: _674  and  _677
REMARK  274  A    between atoms: _677  and  _678
REMARK  275  A    between atoms: _680  and  _682
REMARK  276  A    between atoms: _682  and  _683
REMARK  277  A    between atoms: _682  and  _685
REMARK  278  A    between atoms: _685  and  _686
REMARK  279  A    between atoms: _689  and  _691
REMARK  280  A    between atoms: _691  and  _692
REMARK  281  A    between atoms: _691  and  _694
REMARK  282  A    between atoms: _697  and  _699
REMARK  283  A    between atoms: _699  and  _700
REMARK  284  A    between atoms: _702  and  _704
REMARK  285  A    between atoms: _704  and  _705
REMARK  286  A    between atoms: _708  and  _710
REMARK  287  A    between atoms: _710  and  _711
REMARK  288  A    between atoms: _710  and  _713
REMARK  289  A    between atoms: _716  and  _718
REMARK  290  A    between atoms: _718  and  _719
REMARK  291  A    between atoms: _718  and  _721
REMARK  292  A    between atoms: _721  and  _722
REMARK  293  A    between atoms: _722  and  _723
REMARK  294  A    between atoms: _725  and  _727
REMARK  295  A    between atoms: _727  and  _728
REMARK  296  A    between atoms: _727  and  _730
REMARK  297  A    between atoms: _730  and  _731
REMARK  298  A    between atoms: _731  and  _732
REMARK                            x       y       z     vdW  Elec       q    Type
REMARK                         _______ _______ _______ _____ _____    ______ ____
ROOT
ATOM      1  O   HOH     1      -3.625   0.417  29.668  0.00  0.00    +0.000 OA
ENDROOT
TORSDOF 0
REMARK  Name = ../refined-set-2016/2vkm/2vkm_pocket.pdb
REMARK  298 active torsions:
REMARK  status: ('A' for Active; 'I' for Inactive)
REMARK    1  A    between atoms: _1  and  _3
REMARK    2  A    between atoms: _3  and  _4
REMARK    3  A    between atoms: _6  and  _8
REMARK    4  A    between atoms: _8  and  _9
REMARK    5  A    between atoms: _8  and  _11
REMARK    6  A    between atoms: _11  and  _12
REMARK    7  A    between atoms: _12  and  _13
REMARK    8  A    between atoms: _13  and  _14
REMARK    9  A    between atoms: _14  and  _15
REMARK   10  A    between atoms: _19  and  _21
REMARK   11  A    between atoms: _21  and  _22
REMARK   12  A    between atoms: _21  and  _24
REMARK   13  A    between atoms: _24  and  _25
REMARK   14  A    between atoms: _27  and  _29
REMARK   15  A    between atoms: _29  and  _30
REMARK   16  A    between atoms: _32  and  _34
REMARK   17  A    between atoms: _34  and  _35
REMARK   18  A    between atoms: _34  and  _37
REMARK   19  A    between atoms: _37  and  _38
REMARK   20  A    between atoms: _38  and  _39
REMARK   21  A    between atoms: _44  and  _46
REMARK   22  A    between atoms: _46  and  _47
REMARK   23  A    between atoms: _49  and  _51
REMARK   24  A    between atoms: _51  and  _52
REMARK   25  A    between atoms: _51  and  _54
REMARK   26  A    between atoms: _54  and  _55
REMARK   27  A    between atoms: _60  and  _61
REMARK   28  A    between atoms: _63  and  _65
REMARK   29  A    between atoms: _65  and  _66
REMARK   30  A    between atoms: _65  and  _68
REMARK   31  A    between atoms: _68  and  _69
REMARK   32  A    between atoms: _74  and  _75
REMARK   33  A    between atoms: _77  and  _79
REMARK   34  A    between atoms: _79  and  _80
REMARK   35  A    between atoms: _79  and  _82
REMARK   36  A    between atoms: _82  and  _83
REMARK   37  A    between atoms: _86  and  _88
REMARK   38  A    between atoms: _88  and  _89
REMARK   39  A    between atoms: _88  and  _91
REMARK   40  A    between atoms: _94  and  _96
REMARK   41  A    between atoms: _96  and  _97
REMARK   42  A    between atoms: _96  and  _99
REMARK   43  A    between atoms: _99  and  _100
REMARK   44  A    between atoms: _103  and  _105
REMARK   45  A    between atoms: _105  and  _106
REMARK   46  A    between atoms: _105  and  _108
REMARK   47  A    between atoms: _108  and  _109
REMARK   48  A    between atoms: _112  and  _114
REMARK   49  A    between atoms: _114  and  _115
REMARK   50  A    between atoms: _117  and  _119
REMARK   51  A    between atoms: _119  and  _120
REMARK   52  A    between atoms: _119  and  _122
REMARK   53  A    between atoms: _122  and  _123
REMARK   54  A    between atoms: _125  and  _127
REMARK   55  A    between atoms: _127  and  _128
REMARK   56  A    between atoms: _127  and  _130
REMARK   57  A    between atoms: _130  and  _131
REMARK   58  A    between atoms: _133  and  _135
REMARK   59  A    between atoms: _135  and  _136
REMARK   60  A    between atoms: _135  and  _138
REMARK   61  A    between atoms: _138  and  _139
REMARK   62  A    between atoms: _144  and  _146
REMARK   63  A    between atoms: _146  and  _147
REMARK   64  A    between atoms: _146  and  _149
REMARK   65  A    between atoms: _153  and  _154
REMARK   66  A    between atoms: _159  and  _161
REMARK   67  A    between atoms: _161  and  _162
REMARK   68  A    between atoms: _161  and  _164
REMARK   69  A    between atoms: _164  and  _165
REMARK   70  A    between atoms: _170  and  _171
REMARK   71  A    between atoms: _173  and  _175
REMARK   72  A    between atoms: _175  and  _176
REMARK   73  A    between atoms: _175  and  _178
REMARK   74  A    between atoms: _178  and  _179
REMARK   75  A    between atoms: _182  and  _184
REMARK   76  A    between atoms: _184  and  _185
REMARK   77  A    between atoms: _184  and  _187
REMARK   78  A    between atoms: _187  and  _188
REMARK   79  A    between atoms: _188  and  _189
REMARK   80  A    between atoms: _194  and  _196
REMARK   81  A    between atoms: _196  and  _197
REMARK   82  A    between atoms: _199  and  _201
REMARK   83  A    between atoms: _201  and  _202
REMARK   84  A    between atoms: _201  and  _204
REMARK   85  A    between atoms: _204  and  _205
REMARK   86  A    between atoms: _205  and  _206
REMARK   87  A    between atoms: _206  and  _207
REMARK   88  A    between atoms: _207  and  _208
REMARK   89  A    between atoms: _212  and  _214
REMARK   90  A    between atoms: _214  and  _215
REMARK   91  A    between atoms: _214  and  _217
REMARK   92  A    between atoms: _217  and  _218
REMARK   93  A    between atoms: _228  and  _230
REMARK   94  A    between atoms: _230  and  _231
REMARK   95  A    between atoms: _230  and  _233
REMARK   96  A    between atoms: _233  and  _234
REMARK   97  A    between atoms: _237  and  _239
REMARK   98  A    between atoms: _239  and  _240
REMARK   99  A    between atoms: _239  and  _242
REMARK  100  A    between atoms: _242  and  _243
REMARK  101  A    between atoms: _243  and  _244
REMARK  102  A    between atoms: _244  and  _245
REMARK  103  A    between atoms: _245  and  _246
REMARK  104  A    between atoms: _250  and  _252
REMARK  105  A    between atoms: _252  and  _253
REMARK  106  A    between atoms: _252  and  _255
REMARK  107  A    between atoms: _255  and  _256
REMARK  108  A    between atoms: _262  and  _264
REMARK  109  A    between atoms: _264  and  _265
REMARK  110  A    between atoms: _264  and  _267
REMARK  111  A    between atoms: _267  and  _268
REMARK  112  A    between atoms: _274  and  _276
REMARK  113  A    between atoms: _276  and  _277
REMARK  114  A    between atoms: _276  and  _279
REMARK  115  A    between atoms: _279  and  _280
REMARK  116  A    between atoms: _283  and  _285
REMARK  117  A    between atoms: _285  and  _286
REMARK  118  A    between atoms: _285  and  _288
REMARK  119  A    between atoms: _288  and  _289
REMARK  120  A    between atoms: _291  and  _293
REMARK  121  A    between atoms: _293  and  _294
REMARK  122  A    between atoms: _293  and  _296
REMARK  123  A    between atoms: _296  and  _297
REMARK  124  A    between atoms: _307  and  _309
REMARK  125  A    between atoms: _309  and  _310
REMARK  126  A    between atoms: _312  and  _314
REMARK  127  A    between atoms: _314  and  _315
REMARK  128  A    between atoms: _314  and  _317
REMARK  129  A    between atoms: _317  and  _318
REMARK  130  A    between atoms: _321  and  _323
REMARK  131  A    between atoms: _323  and  _324
REMARK  132  A    between atoms: _323  and  _326
REMARK  133  A    between atoms: _326  and  _327
REMARK  134  A    between atoms: _330  and  _332
REMARK  135  A    between atoms: _332  and  _333
REMARK  136  A    between atoms: _335  and  _337
REMARK  137  A    between atoms: _337  and  _338
REMARK  138  A    between atoms: _337  and  _340
REMARK  139  A    between atoms: _340  and  _341
REMARK  140  A    between atoms: _344  and  _346
REMARK  141  A    between atoms: _346  and  _347
REMARK  142  A    between atoms: _350  and  _352
REMARK  143  A    between atoms: _352  and  _353
REMARK  144  A    between atoms: _352  and  _355
REMARK  145  A    between atoms: _355  and  _356
REMARK  146  A    between atoms: _361  and  _362
REMARK  147  A    between atoms: _364  and  _366
REMARK  148  A    between atoms: _366  and  _367
REMARK  149  A    between atoms: _370  and  _372
REMARK  150  A    between atoms: _372  and  _373
REMARK  151  A    between atoms: _372  and  _375
REMARK  152  A    between atoms: _375  and  _376
REMARK  153  A    between atoms: _376  and  _377
REMARK  154  A    between atoms: _380  and  _382
REMARK  155  A    between atoms: _382  and  _383
REMARK  156  A    between atoms: _382  and  _385
REMARK  157  A    between atoms: _385  and  _386
REMARK  158  A    between atoms: _389  and  _391
REMARK  159  A    between atoms: _391  and  _392
REMARK  160  A    between atoms: _395  and  _397
REMARK  161  A    between atoms: _397  and  _398
REMARK  162  A    between atoms: _397  and  _400
REMARK  163  A    between atoms: _400  and  _401
REMARK  164  A    between atoms: _401  and  _402
REMARK  165  A    between atoms: _402  and  _403
REMARK  166  A    between atoms: _412  and  _414
REMARK  167  A    between atoms: _414  and  _415
REMARK  168  A    between atoms: _414  and  _417
REMARK  169  A    between atoms: _417  and  _418
REMARK  170  A    between atoms: _421  and  _423
REMARK  171  A    between atoms: _423  and  _424
REMARK  172  A    between atoms: _426  and  _428
REMARK  173  A    between atoms: _428  and  _429
REMARK  174  A    between atoms: _428  and  _431
REMARK  175  A    between atoms: _431  and  _432
REMARK  176  A    between atoms: _442  and  _444
REMARK  177  A    between atoms: _444  and  _445
REMARK  178  A    between atoms: _444  and  _447
REMARK  179  A    between atoms: _447  and  _448
REMARK  180  A    between atoms: _453  and  _454
REMARK  181  A    between atoms: _456  and  _458
REMARK  182  A    between atoms: _458  and  _459
REMARK  183  A    between atoms: _458  and  _461
REMARK  184  A    between atoms: _461  and  _462
REMARK  185  A    between atoms: _467  and  _468
REMARK  186  A    between atoms: _470  and  _472
REMARK  187  A    between atoms: _472  and  _473
REMARK  188  A    between atoms: _472  and  _475
REMARK  189  A    between atoms: _475  and  _476
REMARK  190  A    between atoms: _476  and  _477
REMARK  191  A    between atoms: _477  and  _478
REMARK  192  A    between atoms: _478  and  _479
REMARK  193  A    between atoms: _483  and  _485
REMARK  194  A    between atoms: _485  and  _486
REMARK  195  A    between atoms: _485  and  _488
REMARK  196  A    between atoms: _488  and  _489
REMARK  197  A    between atoms: _492  and  _494
REMARK  198  A    between atoms: _494  and  _495
REMARK  199  A    between atoms: _494  and  _497
REMARK  200  A    between atoms: _500  and  _502
REMARK  201  A    between atoms: _502  and  _503
REMARK  202  A    between atoms: _502  and  _505
REMARK  203  A    between atoms: _505  and  _506
REMARK  204  A    between atoms: _509  and  _511
REMARK  205  A    between atoms: _511  and  _512
REMARK  206  A    between atoms: _511  and  _514
REMARK  207  A    between atoms: _514  and  _515
REMARK  208  A    between atoms: _517  and  _519
REMARK  209  A    between atoms: _519  and  _520
REMARK  210  A    between atoms: _522  and  _524
REMARK  211  A    between atoms: _524  and  _525
REMARK  212  A    between atoms: _524  and  _527
REMARK  213  A    between atoms: _527  and  _528
REMARK  214  A    between atoms: _531  and  _533
REMARK  215  A    between atoms: _533  and  _534
REMARK  216  A    between atoms: _533  and  _536
REMARK  217  A    between atoms: _536  and  _537
REMARK  218  A    between atoms: _540  and  _542
REMARK  219  A    between atoms: _542  and  _543
REMARK  220  A    between atoms: _542  and  _545
REMARK  221  A    between atoms: _545  and  _546
REMARK  222  A    between atoms: _551  and  _553
REMARK  223  A    between atoms: _553  and  _554
REMARK  224  A    between atoms: _553  and  _556
REMARK  225  A    between atoms: _556  and  _557
REMARK  226  A    between atoms: _560  and  _562
REMARK  227  A    between atoms: _562  and  _563
REMARK  228  A    between atoms: _562  and  _565
REMARK  229  A    between atoms: _565  and  _566
REMARK  230  A    between atoms: _566  and  _567
REMARK  231  A    between atoms: _567  and  _568
REMARK  232  A    between atoms: _577  and  _579
REMARK  233  A    between atoms: _579  and  _580
REMARK  234  A    between atoms: _579  and  _582
REMARK  235  A    between atoms: _582  and  _583
REMARK  236  A    between atoms: _586  and  _588
REMARK  237  A    between atoms: _588  and  _589
REMARK  238  A    between atoms: _588  and  _591
REMARK  239  A    between atoms: _591  and  _592
REMARK  240  A    between atoms: _595  and  _597
REMARK  241  A    between atoms: _597  and  _598
REMARK  242  A    between atoms: _600  and  _602
REMARK  243  A    between atoms: _602  and  _603
REMARK  244  A    between atoms: _602  and  _605
REMARK  245  A    between atoms: _605  and  _606
REMARK  246  A    between atoms: _606  and  _607
REMARK  247  A    between atoms: _607  and  _608
REMARK  248  A    between atoms: _617  and  _619
REMARK  249  A    between atoms: _619  and  _620
REMARK  250  A    between atoms: _619  and  _622
REMARK  251  A    between atoms: _622  and  _623
REMARK  252  A    between atoms: _629  and  _631
REMARK  253  A    between atoms: _631  and  _632
REMARK  254  A    between atoms: _635  and  _637
REMARK  255  A    between atoms: _637  and  _638
REMARK  256  A    between atoms: _637  and  _640
REMARK  257  A    between atoms: _640  and  _641
REMARK  258  A    between atoms: _644  and  _646
REMARK  259  A    between atoms: _646  and  _647
REMARK  260  A    between atoms: _646  and  _649
REMARK  261  A    between atoms: _649  and  _650
REMARK  262  A    between atoms: _652  and  _654
REMARK  263  A    between atoms: _654  and  _655
REMARK  264  A    between atoms: _654  and  _657
REMARK  265  A    between atoms: _657  and  _658
REMARK  266  A    between atoms: _658  and  _659
REMARK  267  A    between atoms: _664  and  _666
REMARK  268  A    between atoms: _666  and  _667
REMARK  269  A    between atoms: _666  and  _669
REMARK  270  A    between atoms: _669  and  _670
REMARK  271  A    between atoms: _672  and  _674
REMARK  272  A    between atoms: _674  and  _675
REMARK  273  A    between atoms: _674  and  _677
REMARK  274  A    between atoms: _677  and  _678
REMARK  275  A    between atoms: _680  and  _682
REMARK  276  A    between atoms: _682  and  _683
REMARK  277  A    between atoms: _682  and  _685
REMARK  278  A    between atoms: _685  and  _686
REMARK  279  A    between atoms: _689  and  _691
REMARK  280  A    between atoms: _691  and  _692
REMARK  281  A    between atoms: _691  and  _694
REMARK  282  A    between atoms: _697  and  _699
REMARK  283  A    between atoms: _699  and  _700
REMARK  284  A    between atoms: _702  and  _704
REMARK  285  A    between atoms: _704  and  _705
REMARK  286  A    between atoms: _708  and  _710
REMARK  287  A    between atoms: _710  and  _711
REMARK  288  A    between atoms: _710  and  _713
REMARK  289  A    between atoms: _716  and  _718
REMARK  290  A    between atoms: _718  and  _719
REMARK  291  A    between atoms: _718  and  _721
REMARK  292  A    between atoms: _721  and  _722
REMARK  293  A    between atoms: _722  and  _723
REMARK  294  A    between atoms: _725  and  _727
REMARK  295  A    between atoms: _727  and  _728
REMARK  296  A    between atoms: _727  and  _730
REMARK  297  A    between atoms: _730  and  _731
REMARK  298  A    between atoms: _731  and  _732
REMARK                            x       y       z     vdW  Elec       q    Type
REMARK                         _______ _______ _______ _____ _____    ______ ____
ROOT
ATOM      1  O   HOH     1       4.151  -3.796  27.856  0.00  0.00    +0.000 OA
ENDROOT
TORSDOF 0
REMARK  Name = ../refined-set-2016/2vkm/2vkm_pocket.pdb
REMARK  298 active torsions:
REMARK  status: ('A' for Active; 'I' for Inactive)
REMARK    1  A    between atoms: _1  and  _3
REMARK    2  A    between atoms: _3  and  _4
REMARK    3  A    between atoms: _6  and  _8
REMARK    4  A    between atoms: _8  and  _9
REMARK    5  A    between atoms: _8  and  _11
REMARK    6  A    between atoms: _11  and  _12
REMARK    7  A    between atoms: _12  and  _13
REMARK    8  A    between atoms: _13  and  _14
REMARK    9  A    between atoms: _14  and  _15
REMARK   10  A    between atoms: _19  and  _21
REMARK   11  A    between atoms: _21  and  _22
REMARK   12  A    between atoms: _21  and  _24
REMARK   13  A    between atoms: _24  and  _25
REMARK   14  A    between atoms: _27  and  _29
REMARK   15  A    between atoms: _29  and  _30
REMARK   16  A    between atoms: _32  and  _34
REMARK   17  A    between atoms: _34  and  _35
REMARK   18  A    between atoms: _34  and  _37
REMARK   19  A    between atoms: _37  and  _38
REMARK   20  A    between atoms: _38  and  _39
REMARK   21  A    between atoms: _44  and  _46
REMARK   22  A    between atoms: _46  and  _47
REMARK   23  A    between atoms: _49  and  _51
REMARK   24  A    between atoms: _51  and  _52
REMARK   25  A    between atoms: _51  and  _54
REMARK   26  A    between atoms: _54  and  _55
REMARK   27  A    between atoms: _60  and  _61
REMARK   28  A    between atoms: _63  and  _65
REMARK   29  A    between atoms: _65  and  _66
REMARK   30  A    between atoms: _65  and  _68
REMARK   31  A    between atoms: _68  and  _69
REMARK   32  A    between atoms: _74  and  _75
REMARK   33  A    between atoms: _77  and  _79
REMARK   34  A    between atoms: _79  and  _80
REMARK   35  A    between atoms: _79  and  _82
REMARK   36  A    between atoms: _82  and  _83
REMARK   37  A    between atoms: _86  and  _88
REMARK   38  A    between atoms: _88  and  _89
REMARK   39  A    between atoms: _88  and  _91
REMARK   40  A    between atoms: _94  and  _96
REMARK   41  A    between atoms: _96  and  _97
REMARK   42  A    between atoms: _96  and  _99
REMARK   43  A    between atoms: _99  and  _100
REMARK   44  A    between atoms: _103  and  _105
REMARK   45  A    between atoms: _105  and  _106
REMARK   46  A    between atoms: _105  and  _108
REMARK   47  A    between atoms: _108  and  _109
REMARK   48  A    between atoms: _112  and  _114
REMARK   49  A    between atoms: _114  and  _115
REMARK   50  A    between atoms: _117  and  _119
REMARK   51  A    between atoms: _119  and  _120
REMARK   52  A    between atoms: _119  and  _122
REMARK   53  A    between atoms: _122  and  _123
REMARK   54  A    between atoms: _125  and  _127
REMARK   55  A    between atoms: _127  and  _128
REMARK   56  A    between atoms: _127  and  _130
REMARK   57  A    between atoms: _130  and  _131
REMARK   58  A    between atoms: _133  and  _135
REMARK   59  A    between atoms: _135  and  _136
REMARK   60  A    between atoms: _135  and  _138
REMARK   61  A    between atoms: _138  and  _139
REMARK   62  A    between atoms: _144  and  _146
REMARK   63  A    between atoms: _146  and  _147
REMARK   64  A    between atoms: _146  and  _149
REMARK   65  A    between atoms: _153  and  _154
REMARK   66  A    between atoms: _159  and  _161
REMARK   67  A    between atoms: _161  and  _162
REMARK   68  A    between atoms: _161  and  _164
REMARK   69  A    between atoms: _164  and  _165
REMARK   70  A    between atoms: _170  and  _171
REMARK   71  A    between atoms: _173  and  _175
REMARK   72  A    between atoms: _175  and  _176
REMARK   73  A    between atoms: _175  and  _178
REMARK   74  A    between atoms: _178  and  _179
REMARK   75  A    between atoms: _182  and  _184
REMARK   76  A    between atoms: _184  and  _185
REMARK   77  A    between atoms: _184  and  _187
REMARK   78  A    between atoms: _187  and  _188
REMARK   79  A    between atoms: _188  and  _189
REMARK   80  A    between atoms: _194  and  _196
REMARK   81  A    between atoms: _196  and  _197
REMARK   82  A    between atoms: _199  and  _201
REMARK   83  A    between atoms: _201  and  _202
REMARK   84  A    between atoms: _201  and  _204
REMARK   85  A    between atoms: _204  and  _205
REMARK   86  A    between atoms: _205  and  _206
REMARK   87  A    between atoms: _206  and  _207
REMARK   88  A    between atoms: _207  and  _208
REMARK   89  A    between atoms: _212  and  _214
REMARK   90  A    between atoms: _214  and  _215
REMARK   91  A    between atoms: _214  and  _217
REMARK   92  A    between atoms: _217  and  _218
REMARK   93  A    between atoms: _228  and  _230
REMARK   94  A    between atoms: _230  and  _231
REMARK   95  A    between atoms: _230  and  _233
REMARK   96  A    between atoms: _233  and  _234
REMARK   97  A    between atoms: _237  and  _239
REMARK   98  A    between atoms: _239  and  _240
REMARK   99  A    between atoms: _239  and  _242
REMARK  100  A    between atoms: _242  and  _243
REMARK  101  A    between atoms: _243  and  _244
REMARK  102  A    between atoms: _244  and  _245
REMARK  103  A    between atoms: _245  and  _246
REMARK  104  A    between atoms: _250  and  _252
REMARK  105  A    between atoms: _252  and  _253
REMARK  106  A    between atoms: _252  and  _255
REMARK  107  A    between atoms: _255  and  _256
REMARK  108  A    between atoms: _262  and  _264
REMARK  109  A    between atoms: _264  and  _265
REMARK  110  A    between atoms: _264  and  _267
REMARK  111  A    between atoms: _267  and  _268
REMARK  112  A    between atoms: _274  and  _276
REMARK  113  A    between atoms: _276  and  _277
REMARK  114  A    between atoms: _276  and  _279
REMARK  115  A    between atoms: _279  and  _280
REMARK  116  A    between atoms: _283  and  _285
REMARK  117  A    between atoms: _285  and  _286
REMARK  118  A    between atoms: _285  and  _288
REMARK  119  A    between atoms: _288  and  _289
REMARK  120  A    between atoms: _291  and  _293
REMARK  121  A    between atoms: _293  and  _294
REMARK  122  A    between atoms: _293  and  _296
REMARK  123  A    between atoms: _296  and  _297
REMARK  124  A    between atoms: _307  and  _309
REMARK  125  A    between atoms: _309  and  _310
REMARK  126  A    between atoms: _312  and  _314
REMARK  127  A    between atoms: _314  and  _315
REMARK  128  A    between atoms: _314  and  _317
REMARK  129  A    between atoms: _317  and  _318
REMARK  130  A    between atoms: _321  and  _323
REMARK  131  A    between atoms: _323  and  _324
REMARK  132  A    between atoms: _323  and  _326
REMARK  133  A    between atoms: _326  and  _327
REMARK  134  A    between atoms: _330  and  _332
REMARK  135  A    between atoms: _332  and  _333
REMARK  136  A    between atoms: _335  and  _337
REMARK  137  A    between atoms: _337  and  _338
REMARK  138  A    between atoms: _337  and  _340
REMARK  139  A    between atoms: _340  and  _341
REMARK  140  A    between atoms: _344  and  _346
REMARK  141  A    between atoms: _346  and  _347
REMARK  142  A    between atoms: _350  and  _352
REMARK  143  A    between atoms: _352  and  _353
REMARK  144  A    between atoms: _352  and  _355
REMARK  145  A    between atoms: _355  and  _356
REMARK  146  A    between atoms: _361  and  _362
REMARK  147  A    between atoms: _364  and  _366
REMARK  148  A    between atoms: _366  and  _367
REMARK  149  A    between atoms: _370  and  _372
REMARK  150  A    between atoms: _372  and  _373
REMARK  151  A    between atoms: _372  and  _375
REMARK  152  A    between atoms: _375  and  _376
REMARK  153  A    between atoms: _376  and  _377
REMARK  154  A    between atoms: _380  and  _382
REMARK  155  A    between atoms: _382  and  _383
REMARK  156  A    between atoms: _382  and  _385
REMARK  157  A    between atoms: _385  and  _386
REMARK  158  A    between atoms: _389  and  _391
REMARK  159  A    between atoms: _391  and  _392
REMARK  160  A    between atoms: _395  and  _397
REMARK  161  A    between atoms: _397  and  _398
REMARK  162  A    between atoms: _397  and  _400
REMARK  163  A    between atoms: _400  and  _401
REMARK  164  A    between atoms: _401  and  _402
REMARK  165  A    between atoms: _402  and  _403
REMARK  166  A    between atoms: _412  and  _414
REMARK  167  A    between atoms: _414  and  _415
REMARK  168  A    between atoms: _414  and  _417
REMARK  169  A    between atoms: _417  and  _418
REMARK  170  A    between atoms: _421  and  _423
REMARK  171  A    between atoms: _423  and  _424
REMARK  172  A    between atoms: _426  and  _428
REMARK  173  A    between atoms: _428  and  _429
REMARK  174  A    between atoms: _428  and  _431
REMARK  175  A    between atoms: _431  and  _432
REMARK  176  A    between atoms: _442  and  _444
REMARK  177  A    between atoms: _444  and  _445
REMARK  178  A    between atoms: _444  and  _447
REMARK  179  A    between atoms: _447  and  _448
REMARK  180  A    between atoms: _453  and  _454
REMARK  181  A    between atoms: _456  and  _458
REMARK  182  A    between atoms: _458  and  _459
REMARK  183  A    between atoms: _458  and  _461
REMARK  184  A    between atoms: _461  and  _462
REMARK  185  A    between atoms: _467  and  _468
REMARK  186  A    between atoms: _470  and  _472
REMARK  187  A    between atoms: _472  and  _473
REMARK  188  A    between atoms: _472  and  _475
REMARK  189  A    between atoms: _475  and  _476
REMARK  190  A    between atoms: _476  and  _477
REMARK  191  A    between atoms: _477  and  _478
REMARK  192  A    between atoms: _478  and  _479
REMARK  193  A    between atoms: _483  and  _485
REMARK  194  A    between atoms: _485  and  _486
REMARK  195  A    between atoms: _485  and  _488
REMARK  196  A    between atoms: _488  and  _489
REMARK  197  A    between atoms: _492  and  _494
REMARK  198  A    between atoms: _494  and  _495
REMARK  199  A    between atoms: _494  and  _497
REMARK  200  A    between atoms: _500  and  _502
REMARK  201  A    between atoms: _502  and  _503
REMARK  202  A    between atoms: _502  and  _505
REMARK  203  A    between atoms: _505  and  _506
REMARK  204  A    between atoms: _509  and  _511
REMARK  205  A    between atoms: _511  and  _512
REMARK  206  A    between atoms: _511  and  _514
REMARK  207  A    between atoms: _514  and  _515
REMARK  208  A    between atoms: _517  and  _519
REMARK  209  A    between atoms: _519  and  _520
REMARK  210  A    between atoms: _522  and  _524
REMARK  211  A    between atoms: _524  and  _525
REMARK  212  A    between atoms: _524  and  _527
REMARK  213  A    between atoms: _527  and  _528
REMARK  214  A    between atoms: _531  and  _533
REMARK  215  A    between atoms: _533  and  _534
REMARK  216  A    between atoms: _533  and  _536
REMARK  217  A    between atoms: _536  and  _537
REMARK  218  A    between atoms: _540  and  _542
REMARK  219  A    between atoms: _542  and  _543
REMARK  220  A    between atoms: _542  and  _545
REMARK  221  A    between atoms: _545  and  _546
REMARK  222  A    between atoms: _551  and  _553
REMARK  223  A    between atoms: _553  and  _554
REMARK  224  A    between atoms: _553  and  _556
REMARK  225  A    between atoms: _556  and  _557
REMARK  226  A    between atoms: _560  and  _562
REMARK  227  A    between atoms: _562  and  _563
REMARK  228  A    between atoms: _562  and  _565
REMARK  229  A    between atoms: _565  and  _566
REMARK  230  A    between atoms: _566  and  _567
REMARK  231  A    between atoms: _567  and  _568
REMARK  232  A    between atoms: _577  and  _579
REMARK  233  A    between atoms: _579  and  _580
REMARK  234  A    between atoms: _579  and  _582
REMARK  235  A    between atoms: _582  and  _583
REMARK  236  A    between atoms: _586  and  _588
REMARK  237  A    between atoms: _588  and  _589
REMARK  238  A    between atoms: _588  and  _591
REMARK  239  A    between atoms: _591  and  _592
REMARK  240  A    between atoms: _595  and  _597
REMARK  241  A    between atoms: _597  and  _598
REMARK  242  A    between atoms: _600  and  _602
REMARK  243  A    between atoms: _602  and  _603
REMARK  244  A    between atoms: _602  and  _605
REMARK  245  A    between atoms: _605  and  _606
REMARK  246  A    between atoms: _606  and  _607
REMARK  247  A    between atoms: _607  and  _608
REMARK  248  A    between atoms: _617  and  _619
REMARK  249  A    between atoms: _619  and  _620
REMARK  250  A    between atoms: _619  and  _622
REMARK  251  A    between atoms: _622  and  _623
REMARK  252  A    between atoms: _629  and  _631
REMARK  253  A    between atoms: _631  and  _632
REMARK  254  A    between atoms: _635  and  _637
REMARK  255  A    between atoms: _637  and  _638
REMARK  256  A    between atoms: _637  and  _640
REMARK  257  A    between atoms: _640  and  _641
REMARK  258  A    between atoms: _644  and  _646
REMARK  259  A    between atoms: _646  and  _647
REMARK  260  A    between atoms: _646  and  _649
REMARK  261  A    between atoms: _649  and  _650
REMARK  262  A    between atoms: _652  and  _654
REMARK  263  A    between atoms: _654  and  _655
REMARK  264  A    between atoms: _654  and  _657
REMARK  265  A    between atoms: _657  and  _658
REMARK  266  A    between atoms: _658  and  _659
REMARK  267  A    between atoms: _664  and  _666
REMARK  268  A    between atoms: _666  and  _667
REMARK  269  A    between atoms: _666  and  _669
REMARK  270  A    between atoms: _669  and  _670
REMARK  271  A    between atoms: _672  and  _674
REMARK  272  A    between atoms: _674  and  _675
REMARK  273  A    between atoms: _674  and  _677
REMARK  274  A    between atoms: _677  and  _678
REMARK  275  A    between atoms: _680  and  _682
REMARK  276  A    between atoms: _682  and  _683
REMARK  277  A    between atoms: _682  and  _685
REMARK  278  A    between atoms: _685  and  _686
REMARK  279  A    between atoms: _689  and  _691
REMARK  280  A    between atoms: _691  and  _692
REMARK  281  A    between atoms: _691  and  _694
REMARK  282  A    between atoms: _697  and  _699
REMARK  283  A    between atoms: _699  and  _700
REMARK  284  A    between atoms: _702  and  _704
REMARK  285  A    between atoms: _704  and  _705
REMARK  286  A    between atoms: _708  and  _710
REMARK  287  A    between atoms: _710  and  _711
REMARK  288  A    between atoms: _710  and  _713
REMARK  289  A    between atoms: _716  and  _718
REMARK  290  A    between atoms: _718  and  _719
REMARK  291  A    between atoms: _718  and  _721
REMARK  292  A    between atoms: _721  and  _722
REMARK  293  A    between atoms: _722  and  _723
REMARK  294  A    between atoms: _725  and  _727
REMARK  295  A    between atoms: _727  and  _728
REMARK  296  A    between atoms: _727  and  _730
REMARK  297  A    between atoms: _730  and  _731
REMARK  298  A    between atoms: _731  and  _732
REMARK                            x       y       z     vdW  Elec       q    Type
REMARK                         _______ _______ _______ _____ _____    ______ ____
ROOT
ATOM      1  O   HOH     1       4.696   0.071  23.814  0.00  0.00    +0.000 OA
ENDROOT
TORSDOF 0
REMARK  Name = ../refined-set-2016/2vkm/2vkm_pocket.pdb
REMARK  298 active torsions:
REMARK  status: ('A' for Active; 'I' for Inactive)
REMARK    1  A    between atoms: _1  and  _3
REMARK    2  A    between atoms: _3  and  _4
REMARK    3  A    between atoms: _6  and  _8
REMARK    4  A    between atoms: _8  and  _9
REMARK    5  A    between atoms: _8  and  _11
REMARK    6  A    between atoms: _11  and  _12
REMARK    7  A    between atoms: _12  and  _13
REMARK    8  A    between atoms: _13  and  _14
REMARK    9  A    between atoms: _14  and  _15
REMARK   10  A    between atoms: _19  and  _21
REMARK   11  A    between atoms: _21  and  _22
REMARK   12  A    between atoms: _21  and  _24
REMARK   13  A    between atoms: _24  and  _25
REMARK   14  A    between atoms: _27  and  _29
REMARK   15  A    between atoms: _29  and  _30
REMARK   16  A    between atoms: _32  and  _34
REMARK   17  A    between atoms: _34  and  _35
REMARK   18  A    between atoms: _34  and  _37
REMARK   19  A    between atoms: _37  and  _38
REMARK   20  A    between atoms: _38  and  _39
REMARK   21  A    between atoms: _44  and  _46
REMARK   22  A    between atoms: _46  and  _47
REMARK   23  A    between atoms: _49  and  _51
REMARK   24  A    between atoms: _51  and  _52
REMARK   25  A    between atoms: _51  and  _54
REMARK   26  A    between atoms: _54  and  _55
REMARK   27  A    between atoms: _60  and  _61
REMARK   28  A    between atoms: _63  and  _65
REMARK   29  A    between atoms: _65  and  _66
REMARK   30  A    between atoms: _65  and  _68
REMARK   31  A    between atoms: _68  and  _69
REMARK   32  A    between atoms: _74  and  _75
REMARK   33  A    between atoms: _77  and  _79
REMARK   34  A    between atoms: _79  and  _80
REMARK   35  A    between atoms: _79  and  _82
REMARK   36  A    between atoms: _82  and  _83
REMARK   37  A    between atoms: _86  and  _88
REMARK   38  A    between atoms: _88  and  _89
REMARK   39  A    between atoms: _88  and  _91
REMARK   40  A    between atoms: _94  and  _96
REMARK   41  A    between atoms: _96  and  _97
REMARK   42  A    between atoms: _96  and  _99
REMARK   43  A    between atoms: _99  and  _100
REMARK   44  A    between atoms: _103  and  _105
REMARK   45  A    between atoms: _105  and  _106
REMARK   46  A    between atoms: _105  and  _108
REMARK   47  A    between atoms: _108  and  _109
REMARK   48  A    between atoms: _112  and  _114
REMARK   49  A    between atoms: _114  and  _115
REMARK   50  A    between atoms: _117  and  _119
REMARK   51  A    between atoms: _119  and  _120
REMARK   52  A    between atoms: _119  and  _122
REMARK   53  A    between atoms: _122  and  _123
REMARK   54  A    between atoms: _125  and  _127
REMARK   55  A    between atoms: _127  and  _128
REMARK   56  A    between atoms: _127  and  _130
REMARK   57  A    between atoms: _130  and  _131
REMARK   58  A    between atoms: _133  and  _135
REMARK   59  A    between atoms: _135  and  _136
REMARK   60  A    between atoms: _135  and  _138
REMARK   61  A    between atoms: _138  and  _139
REMARK   62  A    between atoms: _144  and  _146
REMARK   63  A    between atoms: _146  and  _147
REMARK   64  A    between atoms: _146  and  _149
REMARK   65  A    between atoms: _153  and  _154
REMARK   66  A    between atoms: _159  and  _161
REMARK   67  A    between atoms: _161  and  _162
REMARK   68  A    between atoms: _161  and  _164
REMARK   69  A    between atoms: _164  and  _165
REMARK   70  A    between atoms: _170  and  _171
REMARK   71  A    between atoms: _173  and  _175
REMARK   72  A    between atoms: _175  and  _176
REMARK   73  A    between atoms: _175  and  _178
REMARK   74  A    between atoms: _178  and  _179
REMARK   75  A    between atoms: _182  and  _184
REMARK   76  A    between atoms: _184  and  _185
REMARK   77  A    between atoms: _184  and  _187
REMARK   78  A    between atoms: _187  and  _188
REMARK   79  A    between atoms: _188  and  _189
REMARK   80  A    between atoms: _194  and  _196
REMARK   81  A    between atoms: _196  and  _197
REMARK   82  A    between atoms: _199  and  _201
REMARK   83  A    between atoms: _201  and  _202
REMARK   84  A    between atoms: _201  and  _204
REMARK   85  A    between atoms: _204  and  _205
REMARK   86  A    between atoms: _205  and  _206
REMARK   87  A    between atoms: _206  and  _207
REMARK   88  A    between atoms: _207  and  _208
REMARK   89  A    between atoms: _212  and  _214
REMARK   90  A    between atoms: _214  and  _215
REMARK   91  A    between atoms: _214  and  _217
REMARK   92  A    between atoms: _217  and  _218
REMARK   93  A    between atoms: _228  and  _230
REMARK   94  A    between atoms: _230  and  _231
REMARK   95  A    between atoms: _230  and  _233
REMARK   96  A    between atoms: _233  and  _234
REMARK   97  A    between atoms: _237  and  _239
REMARK   98  A    between atoms: _239  and  _240
REMARK   99  A    between atoms: _239  and  _242
REMARK  100  A    between atoms: _242  and  _243
REMARK  101  A    between atoms: _243  and  _244
REMARK  102  A    between atoms: _244  and  _245
REMARK  103  A    between atoms: _245  and  _246
REMARK  104  A    between atoms: _250  and  _252
REMARK  105  A    between atoms: _252  and  _253
REMARK  106  A    between atoms: _252  and  _255
REMARK  107  A    between atoms: _255  and  _256
REMARK  108  A    between atoms: _262  and  _264
REMARK  109  A    between atoms: _264  and  _265
REMARK  110  A    between atoms: _264  and  _267
REMARK  111  A    between atoms: _267  and  _268
REMARK  112  A    between atoms: _274  and  _276
REMARK  113  A    between atoms: _276  and  _277
REMARK  114  A    between atoms: _276  and  _279
REMARK  115  A    between atoms: _279  and  _280
REMARK  116  A    between atoms: _283  and  _285
REMARK  117  A    between atoms: _285  and  _286
REMARK  118  A    between atoms: _285  and  _288
REMARK  119  A    between atoms: _288  and  _289
REMARK  120  A    between atoms: _291  and  _293
REMARK  121  A    between atoms: _293  and  _294
REMARK  122  A    between atoms: _293  and  _296
REMARK  123  A    between atoms: _296  and  _297
REMARK  124  A    between atoms: _307  and  _309
REMARK  125  A    between atoms: _309  and  _310
REMARK  126  A    between atoms: _312  and  _314
REMARK  127  A    between atoms: _314  and  _315
REMARK  128  A    between atoms: _314  and  _317
REMARK  129  A    between atoms: _317  and  _318
REMARK  130  A    between atoms: _321  and  _323
REMARK  131  A    between atoms: _323  and  _324
REMARK  132  A    between atoms: _323  and  _326
REMARK  133  A    between atoms: _326  and  _327
REMARK  134  A    between atoms: _330  and  _332
REMARK  135  A    between atoms: _332  and  _333
REMARK  136  A    between atoms: _335  and  _337
REMARK  137  A    between atoms: _337  and  _338
REMARK  138  A    between atoms: _337  and  _340
REMARK  139  A    between atoms: _340  and  _341
REMARK  140  A    between atoms: _344  and  _346
REMARK  141  A    between atoms: _346  and  _347
REMARK  142  A    between atoms: _350  and  _352
REMARK  143  A    between atoms: _352  and  _353
REMARK  144  A    between atoms: _352  and  _355
REMARK  145  A    between atoms: _355  and  _356
REMARK  146  A    between atoms: _361  and  _362
REMARK  147  A    between atoms: _364  and  _366
REMARK  148  A    between atoms: _366  and  _367
REMARK  149  A    between atoms: _370  and  _372
REMARK  150  A    between atoms: _372  and  _373
REMARK  151  A    between atoms: _372  and  _375
REMARK  152  A    between atoms: _375  and  _376
REMARK  153  A    between atoms: _376  and  _377
REMARK  154  A    between atoms: _380  and  _382
REMARK  155  A    between atoms: _382  and  _383
REMARK  156  A    between atoms: _382  and  _385
REMARK  157  A    between atoms: _385  and  _386
REMARK  158  A    between atoms: _389  and  _391
REMARK  159  A    between atoms: _391  and  _392
REMARK  160  A    between atoms: _395  and  _397
REMARK  161  A    between atoms: _397  and  _398
REMARK  162  A    between atoms: _397  and  _400
REMARK  163  A    between atoms: _400  and  _401
REMARK  164  A    between atoms: _401  and  _402
REMARK  165  A    between atoms: _402  and  _403
REMARK  166  A    between atoms: _412  and  _414
REMARK  167  A    between atoms: _414  and  _415
REMARK  168  A    between atoms: _414  and  _417
REMARK  169  A    between atoms: _417  and  _418
REMARK  170  A    between atoms: _421  and  _423
REMARK  171  A    between atoms: _423  and  _424
REMARK  172  A    between atoms: _426  and  _428
REMARK  173  A    between atoms: _428  and  _429
REMARK  174  A    between atoms: _428  and  _431
REMARK  175  A    between atoms: _431  and  _432
REMARK  176  A    between atoms: _442  and  _444
REMARK  177  A    between atoms: _444  and  _445
REMARK  178  A    between atoms: _444  and  _447
REMARK  179  A    between atoms: _447  and  _448
REMARK  180  A    between atoms: _453  and  _454
REMARK  181  A    between atoms: _456  and  _458
REMARK  182  A    between atoms: _458  and  _459
REMARK  183  A    between atoms: _458  and  _461
REMARK  184  A    between atoms: _461  and  _462
REMARK  185  A    between atoms: _467  and  _468
REMARK  186  A    between atoms: _470  and  _472
REMARK  187  A    between atoms: _472  and  _473
REMARK  188  A    between atoms: _472  and  _475
REMARK  189  A    between atoms: _475  and  _476
REMARK  190  A    between atoms: _476  and  _477
REMARK  191  A    between atoms: _477  and  _478
REMARK  192  A    between atoms: _478  and  _479
REMARK  193  A    between atoms: _483  and  _485
REMARK  194  A    between atoms: _485  and  _486
REMARK  195  A    between atoms: _485  and  _488
REMARK  196  A    between atoms: _488  and  _489
REMARK  197  A    between atoms: _492  and  _494
REMARK  198  A    between atoms: _494  and  _495
REMARK  199  A    between atoms: _494  and  _497
REMARK  200  A    between atoms: _500  and  _502
REMARK  201  A    between atoms: _502  and  _503
REMARK  202  A    between atoms: _502  and  _505
REMARK  203  A    between atoms: _505  and  _506
REMARK  204  A    between atoms: _509  and  _511
REMARK  205  A    between atoms: _511  and  _512
REMARK  206  A    between atoms: _511  and  _514
REMARK  207  A    between atoms: _514  and  _515
REMARK  208  A    between atoms: _517  and  _519
REMARK  209  A    between atoms: _519  and  _520
REMARK  210  A    between atoms: _522  and  _524
REMARK  211  A    between atoms: _524  and  _525
REMARK  212  A    between atoms: _524  and  _527
REMARK  213  A    between atoms: _527  and  _528
REMARK  214  A    between atoms: _531  and  _533
REMARK  215  A    between atoms: _533  and  _534
REMARK  216  A    between atoms: _533  and  _536
REMARK  217  A    between atoms: _536  and  _537
REMARK  218  A    between atoms: _540  and  _542
REMARK  219  A    between atoms: _542  and  _543
REMARK  220  A    between atoms: _542  and  _545
REMARK  221  A    between atoms: _545  and  _546
REMARK  222  A    between atoms: _551  and  _553
REMARK  223  A    between atoms: _553  and  _554
REMARK  224  A    between atoms: _553  and  _556
REMARK  225  A    between atoms: _556  and  _557
REMARK  226  A    between atoms: _560  and  _562
REMARK  227  A    between atoms: _562  and  _563
REMARK  228  A    between atoms: _562  and  _565
REMARK  229  A    between atoms: _565  and  _566
REMARK  230  A    between atoms: _566  and  _567
REMARK  231  A    between atoms: _567  and  _568
REMARK  232  A    between atoms: _577  and  _579
REMARK  233  A    between atoms: _579  and  _580
REMARK  234  A    between atoms: _579  and  _582
REMARK  235  A    between atoms: _582  and  _583
REMARK  236  A    between atoms: _586  and  _588
REMARK  237  A    between atoms: _588  and  _589
REMARK  238  A    between atoms: _588  and  _591
REMARK  239  A    between atoms: _591  and  _592
REMARK  240  A    between atoms: _595  and  _597
REMARK  241  A    between atoms: _597  and  _598
REMARK  242  A    between atoms: _600  and  _602
REMARK  243  A    between atoms: _602  and  _603
REMARK  244  A    between atoms: _602  and  _605
REMARK  245  A    between atoms: _605  and  _606
REMARK  246  A    between atoms: _606  and  _607
REMARK  247  A    between atoms: _607  and  _608
REMARK  248  A    between atoms: _617  and  _619
REMARK  249  A    between atoms: _619  and  _620
REMARK  250  A    between atoms: _619  and  _622
REMARK  251  A    between atoms: _622  and  _623
REMARK  252  A    between atoms: _629  and  _631
REMARK  253  A    between atoms: _631  and  _632
REMARK  254  A    between atoms: _635  and  _637
REMARK  255  A    between atoms: _637  and  _638
REMARK  256  A    between atoms: _637  and  _640
REMARK  257  A    between atoms: _640  and  _641
REMARK  258  A    between atoms: _644  and  _646
REMARK  259  A    between atoms: _646  and  _647
REMARK  260  A    between atoms: _646  and  _649
REMARK  261  A    between atoms: _649  and  _650
REMARK  262  A    between atoms: _652  and  _654
REMARK  263  A    between atoms: _654  and  _655
REMARK  264  A    between atoms: _654  and  _657
REMARK  265  A    between atoms: _657  and  _658
REMARK  266  A    between atoms: _658  and  _659
REMARK  267  A    between atoms: _664  and  _666
REMARK  268  A    between atoms: _666  and  _667
REMARK  269  A    between atoms: _666  and  _669
REMARK  270  A    between atoms: _669  and  _670
REMARK  271  A    between atoms: _672  and  _674
REMARK  272  A    between atoms: _674  and  _675
REMARK  273  A    between atoms: _674  and  _677
REMARK  274  A    between atoms: _677  and  _678
REMARK  275  A    between atoms: _680  and  _682
REMARK  276  A    between atoms: _682  and  _683
REMARK  277  A    between atoms: _682  and  _685
REMARK  278  A    between atoms: _685  and  _686
REMARK  279  A    between atoms: _689  and  _691
REMARK  280  A    between atoms: _691  and  _692
REMARK  281  A    between atoms: _691  and  _694
REMARK  282  A    between atoms: _697  and  _699
REMARK  283  A    between atoms: _699  and  _700
REMARK  284  A    between atoms: _702  and  _704
REMARK  285  A    between atoms: _704  and  _705
REMARK  286  A    between atoms: _708  and  _710
REMARK  287  A    between atoms: _710  and  _711
REMARK  288  A    between atoms: _710  and  _713
REMARK  289  A    between atoms: _716  and  _718
REMARK  290  A    between atoms: _718  and  _719
REMARK  291  A    between atoms: _718  and  _721
REMARK  292  A    between atoms: _721  and  _722
REMARK  293  A    between atoms: _722  and  _723
REMARK  294  A    between atoms: _725  and  _727
REMARK  295  A    between atoms: _727  and  _728
REMARK  296  A    between atoms: _727  and  _730
REMARK  297  A    between atoms: _730  and  _731
REMARK  298  A    between atoms: _731  and  _732
REMARK                            x       y       z     vdW  Elec       q    Type
REMARK                         _______ _______ _______ _____ _____    ______ ____
ROOT
ATOM      1  O   HOH     1       6.225  -1.398  27.120  0.00  0.00    +0.000 OA
ENDROOT
TORSDOF 0
REMARK  Name = ../refined-set-2016/2vkm/2vkm_pocket.pdb
REMARK  298 active torsions:
REMARK  status: ('A' for Active; 'I' for Inactive)
REMARK    1  A    between atoms: _1  and  _3
REMARK    2  A    between atoms: _3  and  _4
REMARK    3  A    between atoms: _6  and  _8
REMARK    4  A    between atoms: _8  and  _9
REMARK    5  A    between atoms: _8  and  _11
REMARK    6  A    between atoms: _11  and  _12
REMARK    7  A    between atoms: _12  and  _13
REMARK    8  A    between atoms: _13  and  _14
REMARK    9  A    between atoms: _14  and  _15
REMARK   10  A    between atoms: _19  and  _21
REMARK   11  A    between atoms: _21  and  _22
REMARK   12  A    between atoms: _21  and  _24
REMARK   13  A    between atoms: _24  and  _25
REMARK   14  A    between atoms: _27  and  _29
REMARK   15  A    between atoms: _29  and  _30
REMARK   16  A    between atoms: _32  and  _34
REMARK   17  A    between atoms: _34  and  _35
REMARK   18  A    between atoms: _34  and  _37
REMARK   19  A    between atoms: _37  and  _38
REMARK   20  A    between atoms: _38  and  _39
REMARK   21  A    between atoms: _44  and  _46
REMARK   22  A    between atoms: _46  and  _47
REMARK   23  A    between atoms: _49  and  _51
REMARK   24  A    between atoms: _51  and  _52
REMARK   25  A    between atoms: _51  and  _54
REMARK   26  A    between atoms: _54  and  _55
REMARK   27  A    between atoms: _60  and  _61
REMARK   28  A    between atoms: _63  and  _65
REMARK   29  A    between atoms: _65  and  _66
REMARK   30  A    between atoms: _65  and  _68
REMARK   31  A    between atoms: _68  and  _69
REMARK   32  A    between atoms: _74  and  _75
REMARK   33  A    between atoms: _77  and  _79
REMARK   34  A    between atoms: _79  and  _80
REMARK   35  A    between atoms: _79  and  _82
REMARK   36  A    between atoms: _82  and  _83
REMARK   37  A    between atoms: _86  and  _88
REMARK   38  A    between atoms: _88  and  _89
REMARK   39  A    between atoms: _88  and  _91
REMARK   40  A    between atoms: _94  and  _96
REMARK   41  A    between atoms: _96  and  _97
REMARK   42  A    between atoms: _96  and  _99
REMARK   43  A    between atoms: _99  and  _100
REMARK   44  A    between atoms: _103  and  _105
REMARK   45  A    between atoms: _105  and  _106
REMARK   46  A    between atoms: _105  and  _108
REMARK   47  A    between atoms: _108  and  _109
REMARK   48  A    between atoms: _112  and  _114
REMARK   49  A    between atoms: _114  and  _115
REMARK   50  A    between atoms: _117  and  _119
REMARK   51  A    between atoms: _119  and  _120
REMARK   52  A    between atoms: _119  and  _122
REMARK   53  A    between atoms: _122  and  _123
REMARK   54  A    between atoms: _125  and  _127
REMARK   55  A    between atoms: _127  and  _128
REMARK   56  A    between atoms: _127  and  _130
REMARK   57  A    between atoms: _130  and  _131
REMARK   58  A    between atoms: _133  and  _135
REMARK   59  A    between atoms: _135  and  _136
REMARK   60  A    between atoms: _135  and  _138
REMARK   61  A    between atoms: _138  and  _139
REMARK   62  A    between atoms: _144  and  _146
REMARK   63  A    between atoms: _146  and  _147
REMARK   64  A    between atoms: _146  and  _149
REMARK   65  A    between atoms: _153  and  _154
REMARK   66  A    between atoms: _159  and  _161
REMARK   67  A    between atoms: _161  and  _162
REMARK   68  A    between atoms: _161  and  _164
REMARK   69  A    between atoms: _164  and  _165
REMARK   70  A    between atoms: _170  and  _171
REMARK   71  A    between atoms: _173  and  _175
REMARK   72  A    between atoms: _175  and  _176
REMARK   73  A    between atoms: _175  and  _178
REMARK   74  A    between atoms: _178  and  _179
REMARK   75  A    between atoms: _182  and  _184
REMARK   76  A    between atoms: _184  and  _185
REMARK   77  A    between atoms: _184  and  _187
REMARK   78  A    between atoms: _187  and  _188
REMARK   79  A    between atoms: _188  and  _189
REMARK   80  A    between atoms: _194  and  _196
REMARK   81  A    between atoms: _196  and  _197
REMARK   82  A    between atoms: _199  and  _201
REMARK   83  A    between atoms: _201  and  _202
REMARK   84  A    between atoms: _201  and  _204
REMARK   85  A    between atoms: _204  and  _205
REMARK   86  A    between atoms: _205  and  _206
REMARK   87  A    between atoms: _206  and  _207
REMARK   88  A    between atoms: _207  and  _208
REMARK   89  A    between atoms: _212  and  _214
REMARK   90  A    between atoms: _214  and  _215
REMARK   91  A    between atoms: _214  and  _217
REMARK   92  A    between atoms: _217  and  _218
REMARK   93  A    between atoms: _228  and  _230
REMARK   94  A    between atoms: _230  and  _231
REMARK   95  A    between atoms: _230  and  _233
REMARK   96  A    between atoms: _233  and  _234
REMARK   97  A    between atoms: _237  and  _239
REMARK   98  A    between atoms: _239  and  _240
REMARK   99  A    between atoms: _239  and  _242
REMARK  100  A    between atoms: _242  and  _243
REMARK  101  A    between atoms: _243  and  _244
REMARK  102  A    between atoms: _244  and  _245
REMARK  103  A    between atoms: _245  and  _246
REMARK  104  A    between atoms: _250  and  _252
REMARK  105  A    between atoms: _252  and  _253
REMARK  106  A    between atoms: _252  and  _255
REMARK  107  A    between atoms: _255  and  _256
REMARK  108  A    between atoms: _262  and  _264
REMARK  109  A    between atoms: _264  and  _265
REMARK  110  A    between atoms: _264  and  _267
REMARK  111  A    between atoms: _267  and  _268
REMARK  112  A    between atoms: _274  and  _276
REMARK  113  A    between atoms: _276  and  _277
REMARK  114  A    between atoms: _276  and  _279
REMARK  115  A    between atoms: _279  and  _280
REMARK  116  A    between atoms: _283  and  _285
REMARK  117  A    between atoms: _285  and  _286
REMARK  118  A    between atoms: _285  and  _288
REMARK  119  A    between atoms: _288  and  _289
REMARK  120  A    between atoms: _291  and  _293
REMARK  121  A    between atoms: _293  and  _294
REMARK  122  A    between atoms: _293  and  _296
REMARK  123  A    between atoms: _296  and  _297
REMARK  124  A    between atoms: _307  and  _309
REMARK  125  A    between atoms: _309  and  _310
REMARK  126  A    between atoms: _312  and  _314
REMARK  127  A    between atoms: _314  and  _315
REMARK  128  A    between atoms: _314  and  _317
REMARK  129  A    between atoms: _317  and  _318
REMARK  130  A    between atoms: _321  and  _323
REMARK  131  A    between atoms: _323  and  _324
REMARK  132  A    between atoms: _323  and  _326
REMARK  133  A    between atoms: _326  and  _327
REMARK  134  A    between atoms: _330  and  _332
REMARK  135  A    between atoms: _332  and  _333
REMARK  136  A    between atoms: _335  and  _337
REMARK  137  A    between atoms: _337  and  _338
REMARK  138  A    between atoms: _337  and  _340
REMARK  139  A    between atoms: _340  and  _341
REMARK  140  A    between atoms: _344  and  _346
REMARK  141  A    between atoms: _346  and  _347
REMARK  142  A    between atoms: _350  and  _352
REMARK  143  A    between atoms: _352  and  _353
REMARK  144  A    between atoms: _352  and  _355
REMARK  145  A    between atoms: _355  and  _356
REMARK  146  A    between atoms: _361  and  _362
REMARK  147  A    between atoms: _364  and  _366
REMARK  148  A    between atoms: _366  and  _367
REMARK  149  A    between atoms: _370  and  _372
REMARK  150  A    between atoms: _372  and  _373
REMARK  151  A    between atoms: _372  and  _375
REMARK  152  A    between atoms: _375  and  _376
REMARK  153  A    between atoms: _376  and  _377
REMARK  154  A    between atoms: _380  and  _382
REMARK  155  A    between atoms: _382  and  _383
REMARK  156  A    between atoms: _382  and  _385
REMARK  157  A    between atoms: _385  and  _386
REMARK  158  A    between atoms: _389  and  _391
REMARK  159  A    between atoms: _391  and  _392
REMARK  160  A    between atoms: _395  and  _397
REMARK  161  A    between atoms: _397  and  _398
REMARK  162  A    between atoms: _397  and  _400
REMARK  163  A    between atoms: _400  and  _401
REMARK  164  A    between atoms: _401  and  _402
REMARK  165  A    between atoms: _402  and  _403
REMARK  166  A    between atoms: _412  and  _414
REMARK  167  A    between atoms: _414  and  _415
REMARK  168  A    between atoms: _414  and  _417
REMARK  169  A    between atoms: _417  and  _418
REMARK  170  A    between atoms: _421  and  _423
REMARK  171  A    between atoms: _423  and  _424
REMARK  172  A    between atoms: _426  and  _428
REMARK  173  A    between atoms: _428  and  _429
REMARK  174  A    between atoms: _428  and  _431
REMARK  175  A    between atoms: _431  and  _432
REMARK  176  A    between atoms: _442  and  _444
REMARK  177  A    between atoms: _444  and  _445
REMARK  178  A    between atoms: _444  and  _447
REMARK  179  A    between atoms: _447  and  _448
REMARK  180  A    between atoms: _453  and  _454
REMARK  181  A    between atoms: _456  and  _458
REMARK  182  A    between atoms: _458  and  _459
REMARK  183  A    between atoms: _458  and  _461
REMARK  184  A    between atoms: _461  and  _462
REMARK  185  A    between atoms: _467  and  _468
REMARK  186  A    between atoms: _470  and  _472
REMARK  187  A    between atoms: _472  and  _473
REMARK  188  A    between atoms: _472  and  _475
REMARK  189  A    between atoms: _475  and  _476
REMARK  190  A    between atoms: _476  and  _477
REMARK  191  A    between atoms: _477  and  _478
REMARK  192  A    between atoms: _478  and  _479
REMARK  193  A    between atoms: _483  and  _485
REMARK  194  A    between atoms: _485  and  _486
REMARK  195  A    between atoms: _485  and  _488
REMARK  196  A    between atoms: _488  and  _489
REMARK  197  A    between atoms: _492  and  _494
REMARK  198  A    between atoms: _494  and  _495
REMARK  199  A    between atoms: _494  and  _497
REMARK  200  A    between atoms: _500  and  _502
REMARK  201  A    between atoms: _502  and  _503
REMARK  202  A    between atoms: _502  and  _505
REMARK  203  A    between atoms: _505  and  _506
REMARK  204  A    between atoms: _509  and  _511
REMARK  205  A    between atoms: _511  and  _512
REMARK  206  A    between atoms: _511  and  _514
REMARK  207  A    between atoms: _514  and  _515
REMARK  208  A    between atoms: _517  and  _519
REMARK  209  A    between atoms: _519  and  _520
REMARK  210  A    between atoms: _522  and  _524
REMARK  211  A    between atoms: _524  and  _525
REMARK  212  A    between atoms: _524  and  _527
REMARK  213  A    between atoms: _527  and  _528
REMARK  214  A    between atoms: _531  and  _533
REMARK  215  A    between atoms: _533  and  _534
REMARK  216  A    between atoms: _533  and  _536
REMARK  217  A    between atoms: _536  and  _537
REMARK  218  A    between atoms: _540  and  _542
REMARK  219  A    between atoms: _542  and  _543
REMARK  220  A    between atoms: _542  and  _545
REMARK  221  A    between atoms: _545  and  _546
REMARK  222  A    between atoms: _551  and  _553
REMARK  223  A    between atoms: _553  and  _554
REMARK  224  A    between atoms: _553  and  _556
REMARK  225  A    between atoms: _556  and  _557
REMARK  226  A    between atoms: _560  and  _562
REMARK  227  A    between atoms: _562  and  _563
REMARK  228  A    between atoms: _562  and  _565
REMARK  229  A    between atoms: _565  and  _566
REMARK  230  A    between atoms: _566  and  _567
REMARK  231  A    between atoms: _567  and  _568
REMARK  232  A    between atoms: _577  and  _579
REMARK  233  A    between atoms: _579  and  _580
REMARK  234  A    between atoms: _579  and  _582
REMARK  235  A    between atoms: _582  and  _583
REMARK  236  A    between atoms: _586  and  _588
REMARK  237  A    between atoms: _588  and  _589
REMARK  238  A    between atoms: _588  and  _591
REMARK  239  A    between atoms: _591  and  _592
REMARK  240  A    between atoms: _595  and  _597
REMARK  241  A    between atoms: _597  and  _598
REMARK  242  A    between atoms: _600  and  _602
REMARK  243  A    between atoms: _602  and  _603
REMARK  244  A    between atoms: _602  and  _605
REMARK  245  A    between atoms: _605  and  _606
REMARK  246  A    between atoms: _606  and  _607
REMARK  247  A    between atoms: _607  and  _608
REMARK  248  A    between atoms: _617  and  _619
REMARK  249  A    between atoms: _619  and  _620
REMARK  250  A    between atoms: _619  and  _622
REMARK  251  A    between atoms: _622  and  _623
REMARK  252  A    between atoms: _629  and  _631
REMARK  253  A    between atoms: _631  and  _632
REMARK  254  A    between atoms: _635  and  _637
REMARK  255  A    between atoms: _637  and  _638
REMARK  256  A    between atoms: _637  and  _640
REMARK  257  A    between atoms: _640  and  _641
REMARK  258  A    between atoms: _644  and  _646
REMARK  259  A    between atoms: _646  and  _647
REMARK  260  A    between atoms: _646  and  _649
REMARK  261  A    between atoms: _649  and  _650
REMARK  262  A    between atoms: _652  and  _654
REMARK  263  A    between atoms: _654  and  _655
REMARK  264  A    between atoms: _654  and  _657
REMARK  265  A    between atoms: _657  and  _658
REMARK  266  A    between atoms: _658  and  _659
REMARK  267  A    between atoms: _664  and  _666
REMARK  268  A    between atoms: _666  and  _667
REMARK  269  A    between atoms: _666  and  _669
REMARK  270  A    between atoms: _669  and  _670
REMARK  271  A    between atoms: _672  and  _674
REMARK  272  A    between atoms: _674  and  _675
REMARK  273  A    between atoms: _674  and  _677
REMARK  274  A    between atoms: _677  and  _678
REMARK  275  A    between atoms: _680  and  _682
REMARK  276  A    between atoms: _682  and  _683
REMARK  277  A    between atoms: _682  and  _685
REMARK  278  A    between atoms: _685  and  _686
REMARK  279  A    between atoms: _689  and  _691
REMARK  280  A    between atoms: _691  and  _692
REMARK  281  A    between atoms: _691  and  _694
REMARK  282  A    between atoms: _697  and  _699
REMARK  283  A    between atoms: _699  and  _700
REMARK  284  A    between atoms: _702  and  _704
REMARK  285  A    between atoms: _704  and  _705
REMARK  286  A    between atoms: _708  and  _710
REMARK  287  A    between atoms: _710  and  _711
REMARK  288  A    between atoms: _710  and  _713
REMARK  289  A    between atoms: _716  and  _718
REMARK  290  A    between atoms: _718  and  _719
REMARK  291  A    between atoms: _718  and  _721
REMARK  292  A    between atoms: _721  and  _722
REMARK  293  A    between atoms: _722  and  _723
REMARK  294  A    between atoms: _725  and  _727
REMARK  295  A    between atoms: _727  and  _728
REMARK  296  A    between atoms: _727  and  _730
REMARK  297  A    between atoms: _730  and  _731
REMARK  298  A    between atoms: _731  and  _732
REMARK                            x       y       z     vdW  Elec       q    Type
REMARK                         _______ _______ _______ _____ _____    ______ ____
ROOT
ATOM      1  O   HOH     1       5.052   4.879  21.729  0.00  0.00    +0.000 OA
ENDROOT
TORSDOF 0
REMARK  Name = ../refined-set-2016/2vkm/2vkm_pocket.pdb
REMARK  298 active torsions:
REMARK  status: ('A' for Active; 'I' for Inactive)
REMARK    1  A    between atoms: _1  and  _3
REMARK    2  A    between atoms: _3  and  _4
REMARK    3  A    between atoms: _6  and  _8
REMARK    4  A    between atoms: _8  and  _9
REMARK    5  A    between atoms: _8  and  _11
REMARK    6  A    between atoms: _11  and  _12
REMARK    7  A    between atoms: _12  and  _13
REMARK    8  A    between atoms: _13  and  _14
REMARK    9  A    between atoms: _14  and  _15
REMARK   10  A    between atoms: _19  and  _21
REMARK   11  A    between atoms: _21  and  _22
REMARK   12  A    between atoms: _21  and  _24
REMARK   13  A    between atoms: _24  and  _25
REMARK   14  A    between atoms: _27  and  _29
REMARK   15  A    between atoms: _29  and  _30
REMARK   16  A    between atoms: _32  and  _34
REMARK   17  A    between atoms: _34  and  _35
REMARK   18  A    between atoms: _34  and  _37
REMARK   19  A    between atoms: _37  and  _38
REMARK   20  A    between atoms: _38  and  _39
REMARK   21  A    between atoms: _44  and  _46
REMARK   22  A    between atoms: _46  and  _47
REMARK   23  A    between atoms: _49  and  _51
REMARK   24  A    between atoms: _51  and  _52
REMARK   25  A    between atoms: _51  and  _54
REMARK   26  A    between atoms: _54  and  _55
REMARK   27  A    between atoms: _60  and  _61
REMARK   28  A    between atoms: _63  and  _65
REMARK   29  A    between atoms: _65  and  _66
REMARK   30  A    between atoms: _65  and  _68
REMARK   31  A    between atoms: _68  and  _69
REMARK   32  A    between atoms: _74  and  _75
REMARK   33  A    between atoms: _77  and  _79
REMARK   34  A    between atoms: _79  and  _80
REMARK   35  A    between atoms: _79  and  _82
REMARK   36  A    between atoms: _82  and  _83
REMARK   37  A    between atoms: _86  and  _88
REMARK   38  A    between atoms: _88  and  _89
REMARK   39  A    between atoms: _88  and  _91
REMARK   40  A    between atoms: _94  and  _96
REMARK   41  A    between atoms: _96  and  _97
REMARK   42  A    between atoms: _96  and  _99
REMARK   43  A    between atoms: _99  and  _100
REMARK   44  A    between atoms: _103  and  _105
REMARK   45  A    between atoms: _105  and  _106
REMARK   46  A    between atoms: _105  and  _108
REMARK   47  A    between atoms: _108  and  _109
REMARK   48  A    between atoms: _112  and  _114
REMARK   49  A    between atoms: _114  and  _115
REMARK   50  A    between atoms: _117  and  _119
REMARK   51  A    between atoms: _119  and  _120
REMARK   52  A    between atoms: _119  and  _122
REMARK   53  A    between atoms: _122  and  _123
REMARK   54  A    between atoms: _125  and  _127
REMARK   55  A    between atoms: _127  and  _128
REMARK   56  A    between atoms: _127  and  _130
REMARK   57  A    between atoms: _130  and  _131
REMARK   58  A    between atoms: _133  and  _135
REMARK   59  A    between atoms: _135  and  _136
REMARK   60  A    between atoms: _135  and  _138
REMARK   61  A    between atoms: _138  and  _139
REMARK   62  A    between atoms: _144  and  _146
REMARK   63  A    between atoms: _146  and  _147
REMARK   64  A    between atoms: _146  and  _149
REMARK   65  A    between atoms: _153  and  _154
REMARK   66  A    between atoms: _159  and  _161
REMARK   67  A    between atoms: _161  and  _162
REMARK   68  A    between atoms: _161  and  _164
REMARK   69  A    between atoms: _164  and  _165
REMARK   70  A    between atoms: _170  and  _171
REMARK   71  A    between atoms: _173  and  _175
REMARK   72  A    between atoms: _175  and  _176
REMARK   73  A    between atoms: _175  and  _178
REMARK   74  A    between atoms: _178  and  _179
REMARK   75  A    between atoms: _182  and  _184
REMARK   76  A    between atoms: _184  and  _185
REMARK   77  A    between atoms: _184  and  _187
REMARK   78  A    between atoms: _187  and  _188
REMARK   79  A    between atoms: _188  and  _189
REMARK   80  A    between atoms: _194  and  _196
REMARK   81  A    between atoms: _196  and  _197
REMARK   82  A    between atoms: _199  and  _201
REMARK   83  A    between atoms: _201  and  _202
REMARK   84  A    between atoms: _201  and  _204
REMARK   85  A    between atoms: _204  and  _205
REMARK   86  A    between atoms: _205  and  _206
REMARK   87  A    between atoms: _206  and  _207
REMARK   88  A    between atoms: _207  and  _208
REMARK   89  A    between atoms: _212  and  _214
REMARK   90  A    between atoms: _214  and  _215
REMARK   91  A    between atoms: _214  and  _217
REMARK   92  A    between atoms: _217  and  _218
REMARK   93  A    between atoms: _228  and  _230
REMARK   94  A    between atoms: _230  and  _231
REMARK   95  A    between atoms: _230  and  _233
REMARK   96  A    between atoms: _233  and  _234
REMARK   97  A    between atoms: _237  and  _239
REMARK   98  A    between atoms: _239  and  _240
REMARK   99  A    between atoms: _239  and  _242
REMARK  100  A    between atoms: _242  and  _243
REMARK  101  A    between atoms: _243  and  _244
REMARK  102  A    between atoms: _244  and  _245
REMARK  103  A    between atoms: _245  and  _246
REMARK  104  A    between atoms: _250  and  _252
REMARK  105  A    between atoms: _252  and  _253
REMARK  106  A    between atoms: _252  and  _255
REMARK  107  A    between atoms: _255  and  _256
REMARK  108  A    between atoms: _262  and  _264
REMARK  109  A    between atoms: _264  and  _265
REMARK  110  A    between atoms: _264  and  _267
REMARK  111  A    between atoms: _267  and  _268
REMARK  112  A    between atoms: _274  and  _276
REMARK  113  A    between atoms: _276  and  _277
REMARK  114  A    between atoms: _276  and  _279
REMARK  115  A    between atoms: _279  and  _280
REMARK  116  A    between atoms: _283  and  _285
REMARK  117  A    between atoms: _285  and  _286
REMARK  118  A    between atoms: _285  and  _288
REMARK  119  A    between atoms: _288  and  _289
REMARK  120  A    between atoms: _291  and  _293
REMARK  121  A    between atoms: _293  and  _294
REMARK  122  A    between atoms: _293  and  _296
REMARK  123  A    between atoms: _296  and  _297
REMARK  124  A    between atoms: _307  and  _309
REMARK  125  A    between atoms: _309  and  _310
REMARK  126  A    between atoms: _312  and  _314
REMARK  127  A    between atoms: _314  and  _315
REMARK  128  A    between atoms: _314  and  _317
REMARK  129  A    between atoms: _317  and  _318
REMARK  130  A    between atoms: _321  and  _323
REMARK  131  A    between atoms: _323  and  _324
REMARK  132  A    between atoms: _323  and  _326
REMARK  133  A    between atoms: _326  and  _327
REMARK  134  A    between atoms: _330  and  _332
REMARK  135  A    between atoms: _332  and  _333
REMARK  136  A    between atoms: _335  and  _337
REMARK  137  A    between atoms: _337  and  _338
REMARK  138  A    between atoms: _337  and  _340
REMARK  139  A    between atoms: _340  and  _341
REMARK  140  A    between atoms: _344  and  _346
REMARK  141  A    between atoms: _346  and  _347
REMARK  142  A    between atoms: _350  and  _352
REMARK  143  A    between atoms: _352  and  _353
REMARK  144  A    between atoms: _352  and  _355
REMARK  145  A    between atoms: _355  and  _356
REMARK  146  A    between atoms: _361  and  _362
REMARK  147  A    between atoms: _364  and  _366
REMARK  148  A    between atoms: _366  and  _367
REMARK  149  A    between atoms: _370  and  _372
REMARK  150  A    between atoms: _372  and  _373
REMARK  151  A    between atoms: _372  and  _375
REMARK  152  A    between atoms: _375  and  _376
REMARK  153  A    between atoms: _376  and  _377
REMARK  154  A    between atoms: _380  and  _382
REMARK  155  A    between atoms: _382  and  _383
REMARK  156  A    between atoms: _382  and  _385
REMARK  157  A    between atoms: _385  and  _386
REMARK  158  A    between atoms: _389  and  _391
REMARK  159  A    between atoms: _391  and  _392
REMARK  160  A    between atoms: _395  and  _397
REMARK  161  A    between atoms: _397  and  _398
REMARK  162  A    between atoms: _397  and  _400
REMARK  163  A    between atoms: _400  and  _401
REMARK  164  A    between atoms: _401  and  _402
REMARK  165  A    between atoms: _402  and  _403
REMARK  166  A    between atoms: _412  and  _414
REMARK  167  A    between atoms: _414  and  _415
REMARK  168  A    between atoms: _414  and  _417
REMARK  169  A    between atoms: _417  and  _418
REMARK  170  A    between atoms: _421  and  _423
REMARK  171  A    between atoms: _423  and  _424
REMARK  172  A    between atoms: _426  and  _428
REMARK  173  A    between atoms: _428  and  _429
REMARK  174  A    between atoms: _428  and  _431
REMARK  175  A    between atoms: _431  and  _432
REMARK  176  A    between atoms: _442  and  _444
REMARK  177  A    between atoms: _444  and  _445
REMARK  178  A    between atoms: _444  and  _447
REMARK  179  A    between atoms: _447  and  _448
REMARK  180  A    between atoms: _453  and  _454
REMARK  181  A    between atoms: _456  and  _458
REMARK  182  A    between atoms: _458  and  _459
REMARK  183  A    between atoms: _458  and  _461
REMARK  184  A    between atoms: _461  and  _462
REMARK  185  A    between atoms: _467  and  _468
REMARK  186  A    between atoms: _470  and  _472
REMARK  187  A    between atoms: _472  and  _473
REMARK  188  A    between atoms: _472  and  _475
REMARK  189  A    between atoms: _475  and  _476
REMARK  190  A    between atoms: _476  and  _477
REMARK  191  A    between atoms: _477  and  _478
REMARK  192  A    between atoms: _478  and  _479
REMARK  193  A    between atoms: _483  and  _485
REMARK  194  A    between atoms: _485  and  _486
REMARK  195  A    between atoms: _485  and  _488
REMARK  196  A    between atoms: _488  and  _489
REMARK  197  A    between atoms: _492  and  _494
REMARK  198  A    between atoms: _494  and  _495
REMARK  199  A    between atoms: _494  and  _497
REMARK  200  A    between atoms: _500  and  _502
REMARK  201  A    between atoms: _502  and  _503
REMARK  202  A    between atoms: _502  and  _505
REMARK  203  A    between atoms: _505  and  _506
REMARK  204  A    between atoms: _509  and  _511
REMARK  205  A    between atoms: _511  and  _512
REMARK  206  A    between atoms: _511  and  _514
REMARK  207  A    between atoms: _514  and  _515
REMARK  208  A    between atoms: _517  and  _519
REMARK  209  A    between atoms: _519  and  _520
REMARK  210  A    between atoms: _522  and  _524
REMARK  211  A    between atoms: _524  and  _525
REMARK  212  A    between atoms: _524  and  _527
REMARK  213  A    between atoms: _527  and  _528
REMARK  214  A    between atoms: _531  and  _533
REMARK  215  A    between atoms: _533  and  _534
REMARK  216  A    between atoms: _533  and  _536
REMARK  217  A    between atoms: _536  and  _537
REMARK  218  A    between atoms: _540  and  _542
REMARK  219  A    between atoms: _542  and  _543
REMARK  220  A    between atoms: _542  and  _545
REMARK  221  A    between atoms: _545  and  _546
REMARK  222  A    between atoms: _551  and  _553
REMARK  223  A    between atoms: _553  and  _554
REMARK  224  A    between atoms: _553  and  _556
REMARK  225  A    between atoms: _556  and  _557
REMARK  226  A    between atoms: _560  and  _562
REMARK  227  A    between atoms: _562  and  _563
REMARK  228  A    between atoms: _562  and  _565
REMARK  229  A    between atoms: _565  and  _566
REMARK  230  A    between atoms: _566  and  _567
REMARK  231  A    between atoms: _567  and  _568
REMARK  232  A    between atoms: _577  and  _579
REMARK  233  A    between atoms: _579  and  _580
REMARK  234  A    between atoms: _579  and  _582
REMARK  235  A    between atoms: _582  and  _583
REMARK  236  A    between atoms: _586  and  _588
REMARK  237  A    between atoms: _588  and  _589
REMARK  238  A    between atoms: _588  and  _591
REMARK  239  A    between atoms: _591  and  _592
REMARK  240  A    between atoms: _595  and  _597
REMARK  241  A    between atoms: _597  and  _598
REMARK  242  A    between atoms: _600  and  _602
REMARK  243  A    between atoms: _602  and  _603
REMARK  244  A    between atoms: _602  and  _605
REMARK  245  A    between atoms: _605  and  _606
REMARK  246  A    between atoms: _606  and  _607
REMARK  247  A    between atoms: _607  and  _608
REMARK  248  A    between atoms: _617  and  _619
REMARK  249  A    between atoms: _619  and  _620
REMARK  250  A    between atoms: _619  and  _622
REMARK  251  A    between atoms: _622  and  _623
REMARK  252  A    between atoms: _629  and  _631
REMARK  253  A    between atoms: _631  and  _632
REMARK  254  A    between atoms: _635  and  _637
REMARK  255  A    between atoms: _637  and  _638
REMARK  256  A    between atoms: _637  and  _640
REMARK  257  A    between atoms: _640  and  _641
REMARK  258  A    between atoms: _644  and  _646
REMARK  259  A    between atoms: _646  and  _647
REMARK  260  A    between atoms: _646  and  _649
REMARK  261  A    between atoms: _649  and  _650
REMARK  262  A    between atoms: _652  and  _654
REMARK  263  A    between atoms: _654  and  _655
REMARK  264  A    between atoms: _654  and  _657
REMARK  265  A    between atoms: _657  and  _658
REMARK  266  A    between atoms: _658  and  _659
REMARK  267  A    between atoms: _664  and  _666
REMARK  268  A    between atoms: _666  and  _667
REMARK  269  A    between atoms: _666  and  _669
REMARK  270  A    between atoms: _669  and  _670
REMARK  271  A    between atoms: _672  and  _674
REMARK  272  A    between atoms: _674  and  _675
REMARK  273  A    between atoms: _674  and  _677
REMARK  274  A    between atoms: _677  and  _678
REMARK  275  A    between atoms: _680  and  _682
REMARK  276  A    between atoms: _682  and  _683
REMARK  277  A    between atoms: _682  and  _685
REMARK  278  A    between atoms: _685  and  _686
REMARK  279  A    between atoms: _689  and  _691
REMARK  280  A    between atoms: _691  and  _692
REMARK  281  A    between atoms: _691  and  _694
REMARK  282  A    between atoms: _697  and  _699
REMARK  283  A    between atoms: _699  and  _700
REMARK  284  A    between atoms: _702  and  _704
REMARK  285  A    between atoms: _704  and  _705
REMARK  286  A    between atoms: _708  and  _710
REMARK  287  A    between atoms: _710  and  _711
REMARK  288  A    between atoms: _710  and  _713
REMARK  289  A    between atoms: _716  and  _718
REMARK  290  A    between atoms: _718  and  _719
REMARK  291  A    between atoms: _718  and  _721
REMARK  292  A    between atoms: _721  and  _722
REMARK  293  A    between atoms: _722  and  _723
REMARK  294  A    between atoms: _725  and  _727
REMARK  295  A    between atoms: _727  and  _728
REMARK  296  A    between atoms: _727  and  _730
REMARK  297  A    between atoms: _730  and  _731
REMARK  298  A    between atoms: _731  and  _732
REMARK                            x       y       z     vdW  Elec       q    Type
REMARK                         _______ _______ _______ _____ _____    ______ ____
ROOT
ATOM      1  O   HOH     1       9.635   1.190  33.606  0.00  0.00    +0.000 OA
ENDROOT
TORSDOF 0
REMARK  Name = ../refined-set-2016/2vkm/2vkm_pocket.pdb
REMARK  298 active torsions:
REMARK  status: ('A' for Active; 'I' for Inactive)
REMARK    1  A    between atoms: _1  and  _3
REMARK    2  A    between atoms: _3  and  _4
REMARK    3  A    between atoms: _6  and  _8
REMARK    4  A    between atoms: _8  and  _9
REMARK    5  A    between atoms: _8  and  _11
REMARK    6  A    between atoms: _11  and  _12
REMARK    7  A    between atoms: _12  and  _13
REMARK    8  A    between atoms: _13  and  _14
REMARK    9  A    between atoms: _14  and  _15
REMARK   10  A    between atoms: _19  and  _21
REMARK   11  A    between atoms: _21  and  _22
REMARK   12  A    between atoms: _21  and  _24
REMARK   13  A    between atoms: _24  and  _25
REMARK   14  A    between atoms: _27  and  _29
REMARK   15  A    between atoms: _29  and  _30
REMARK   16  A    between atoms: _32  and  _34
REMARK   17  A    between atoms: _34  and  _35
REMARK   18  A    between atoms: _34  and  _37
REMARK   19  A    between atoms: _37  and  _38
REMARK   20  A    between atoms: _38  and  _39
REMARK   21  A    between atoms: _44  and  _46
REMARK   22  A    between atoms: _46  and  _47
REMARK   23  A    between atoms: _49  and  _51
REMARK   24  A    between atoms: _51  and  _52
REMARK   25  A    between atoms: _51  and  _54
REMARK   26  A    between atoms: _54  and  _55
REMARK   27  A    between atoms: _60  and  _61
REMARK   28  A    between atoms: _63  and  _65
REMARK   29  A    between atoms: _65  and  _66
REMARK   30  A    between atoms: _65  and  _68
REMARK   31  A    between atoms: _68  and  _69
REMARK   32  A    between atoms: _74  and  _75
REMARK   33  A    between atoms: _77  and  _79
REMARK   34  A    between atoms: _79  and  _80
REMARK   35  A    between atoms: _79  and  _82
REMARK   36  A    between atoms: _82  and  _83
REMARK   37  A    between atoms: _86  and  _88
REMARK   38  A    between atoms: _88  and  _89
REMARK   39  A    between atoms: _88  and  _91
REMARK   40  A    between atoms: _94  and  _96
REMARK   41  A    between atoms: _96  and  _97
REMARK   42  A    between atoms: _96  and  _99
REMARK   43  A    between atoms: _99  and  _100
REMARK   44  A    between atoms: _103  and  _105
REMARK   45  A    between atoms: _105  and  _106
REMARK   46  A    between atoms: _105  and  _108
REMARK   47  A    between atoms: _108  and  _109
REMARK   48  A    between atoms: _112  and  _114
REMARK   49  A    between atoms: _114  and  _115
REMARK   50  A    between atoms: _117  and  _119
REMARK   51  A    between atoms: _119  and  _120
REMARK   52  A    between atoms: _119  and  _122
REMARK   53  A    between atoms: _122  and  _123
REMARK   54  A    between atoms: _125  and  _127
REMARK   55  A    between atoms: _127  and  _128
REMARK   56  A    between atoms: _127  and  _130
REMARK   57  A    between atoms: _130  and  _131
REMARK   58  A    between atoms: _133  and  _135
REMARK   59  A    between atoms: _135  and  _136
REMARK   60  A    between atoms: _135  and  _138
REMARK   61  A    between atoms: _138  and  _139
REMARK   62  A    between atoms: _144  and  _146
REMARK   63  A    between atoms: _146  and  _147
REMARK   64  A    between atoms: _146  and  _149
REMARK   65  A    between atoms: _153  and  _154
REMARK   66  A    between atoms: _159  and  _161
REMARK   67  A    between atoms: _161  and  _162
REMARK   68  A    between atoms: _161  and  _164
REMARK   69  A    between atoms: _164  and  _165
REMARK   70  A    between atoms: _170  and  _171
REMARK   71  A    between atoms: _173  and  _175
REMARK   72  A    between atoms: _175  and  _176
REMARK   73  A    between atoms: _175  and  _178
REMARK   74  A    between atoms: _178  and  _179
REMARK   75  A    between atoms: _182  and  _184
REMARK   76  A    between atoms: _184  and  _185
REMARK   77  A    between atoms: _184  and  _187
REMARK   78  A    between atoms: _187  and  _188
REMARK   79  A    between atoms: _188  and  _189
REMARK   80  A    between atoms: _194  and  _196
REMARK   81  A    between atoms: _196  and  _197
REMARK   82  A    between atoms: _199  and  _201
REMARK   83  A    between atoms: _201  and  _202
REMARK   84  A    between atoms: _201  and  _204
REMARK   85  A    between atoms: _204  and  _205
REMARK   86  A    between atoms: _205  and  _206
REMARK   87  A    between atoms: _206  and  _207
REMARK   88  A    between atoms: _207  and  _208
REMARK   89  A    between atoms: _212  and  _214
REMARK   90  A    between atoms: _214  and  _215
REMARK   91  A    between atoms: _214  and  _217
REMARK   92  A    between atoms: _217  and  _218
REMARK   93  A    between atoms: _228  and  _230
REMARK   94  A    between atoms: _230  and  _231
REMARK   95  A    between atoms: _230  and  _233
REMARK   96  A    between atoms: _233  and  _234
REMARK   97  A    between atoms: _237  and  _239
REMARK   98  A    between atoms: _239  and  _240
REMARK   99  A    between atoms: _239  and  _242
REMARK  100  A    between atoms: _242  and  _243
REMARK  101  A    between atoms: _243  and  _244
REMARK  102  A    between atoms: _244  and  _245
REMARK  103  A    between atoms: _245  and  _246
REMARK  104  A    between atoms: _250  and  _252
REMARK  105  A    between atoms: _252  and  _253
REMARK  106  A    between atoms: _252  and  _255
REMARK  107  A    between atoms: _255  and  _256
REMARK  108  A    between atoms: _262  and  _264
REMARK  109  A    between atoms: _264  and  _265
REMARK  110  A    between atoms: _264  and  _267
REMARK  111  A    between atoms: _267  and  _268
REMARK  112  A    between atoms: _274  and  _276
REMARK  113  A    between atoms: _276  and  _277
REMARK  114  A    between atoms: _276  and  _279
REMARK  115  A    between atoms: _279  and  _280
REMARK  116  A    between atoms: _283  and  _285
REMARK  117  A    between atoms: _285  and  _286
REMARK  118  A    between atoms: _285  and  _288
REMARK  119  A    between atoms: _288  and  _289
REMARK  120  A    between atoms: _291  and  _293
REMARK  121  A    between atoms: _293  and  _294
REMARK  122  A    between atoms: _293  and  _296
REMARK  123  A    between atoms: _296  and  _297
REMARK  124  A    between atoms: _307  and  _309
REMARK  125  A    between atoms: _309  and  _310
REMARK  126  A    between atoms: _312  and  _314
REMARK  127  A    between atoms: _314  and  _315
REMARK  128  A    between atoms: _314  and  _317
REMARK  129  A    between atoms: _317  and  _318
REMARK  130  A    between atoms: _321  and  _323
REMARK  131  A    between atoms: _323  and  _324
REMARK  132  A    between atoms: _323  and  _326
REMARK  133  A    between atoms: _326  and  _327
REMARK  134  A    between atoms: _330  and  _332
REMARK  135  A    between atoms: _332  and  _333
REMARK  136  A    between atoms: _335  and  _337
REMARK  137  A    between atoms: _337  and  _338
REMARK  138  A    between atoms: _337  and  _340
REMARK  139  A    between atoms: _340  and  _341
REMARK  140  A    between atoms: _344  and  _346
REMARK  141  A    between atoms: _346  and  _347
REMARK  142  A    between atoms: _350  and  _352
REMARK  143  A    between atoms: _352  and  _353
REMARK  144  A    between atoms: _352  and  _355
REMARK  145  A    between atoms: _355  and  _356
REMARK  146  A    between atoms: _361  and  _362
REMARK  147  A    between atoms: _364  and  _366
REMARK  148  A    between atoms: _366  and  _367
REMARK  149  A    between atoms: _370  and  _372
REMARK  150  A    between atoms: _372  and  _373
REMARK  151  A    between atoms: _372  and  _375
REMARK  152  A    between atoms: _375  and  _376
REMARK  153  A    between atoms: _376  and  _377
REMARK  154  A    between atoms: _380  and  _382
REMARK  155  A    between atoms: _382  and  _383
REMARK  156  A    between atoms: _382  and  _385
REMARK  157  A    between atoms: _385  and  _386
REMARK  158  A    between atoms: _389  and  _391
REMARK  159  A    between atoms: _391  and  _392
REMARK  160  A    between atoms: _395  and  _397
REMARK  161  A    between atoms: _397  and  _398
REMARK  162  A    between atoms: _397  and  _400
REMARK  163  A    between atoms: _400  and  _401
REMARK  164  A    between atoms: _401  and  _402
REMARK  165  A    between atoms: _402  and  _403
REMARK  166  A    between atoms: _412  and  _414
REMARK  167  A    between atoms: _414  and  _415
REMARK  168  A    between atoms: _414  and  _417
REMARK  169  A    between atoms: _417  and  _418
REMARK  170  A    between atoms: _421  and  _423
REMARK  171  A    between atoms: _423  and  _424
REMARK  172  A    between atoms: _426  and  _428
REMARK  173  A    between atoms: _428  and  _429
REMARK  174  A    between atoms: _428  and  _431
REMARK  175  A    between atoms: _431  and  _432
REMARK  176  A    between atoms: _442  and  _444
REMARK  177  A    between atoms: _444  and  _445
REMARK  178  A    between atoms: _444  and  _447
REMARK  179  A    between atoms: _447  and  _448
REMARK  180  A    between atoms: _453  and  _454
REMARK  181  A    between atoms: _456  and  _458
REMARK  182  A    between atoms: _458  and  _459
REMARK  183  A    between atoms: _458  and  _461
REMARK  184  A    between atoms: _461  and  _462
REMARK  185  A    between atoms: _467  and  _468
REMARK  186  A    between atoms: _470  and  _472
REMARK  187  A    between atoms: _472  and  _473
REMARK  188  A    between atoms: _472  and  _475
REMARK  189  A    between atoms: _475  and  _476
REMARK  190  A    between atoms: _476  and  _477
REMARK  191  A    between atoms: _477  and  _478
REMARK  192  A    between atoms: _478  and  _479
REMARK  193  A    between atoms: _483  and  _485
REMARK  194  A    between atoms: _485  and  _486
REMARK  195  A    between atoms: _485  and  _488
REMARK  196  A    between atoms: _488  and  _489
REMARK  197  A    between atoms: _492  and  _494
REMARK  198  A    between atoms: _494  and  _495
REMARK  199  A    between atoms: _494  and  _497
REMARK  200  A    between atoms: _500  and  _502
REMARK  201  A    between atoms: _502  and  _503
REMARK  202  A    between atoms: _502  and  _505
REMARK  203  A    between atoms: _505  and  _506
REMARK  204  A    between atoms: _509  and  _511
REMARK  205  A    between atoms: _511  and  _512
REMARK  206  A    between atoms: _511  and  _514
REMARK  207  A    between atoms: _514  and  _515
REMARK  208  A    between atoms: _517  and  _519
REMARK  209  A    between atoms: _519  and  _520
REMARK  210  A    between atoms: _522  and  _524
REMARK  211  A    between atoms: _524  and  _525
REMARK  212  A    between atoms: _524  and  _527
REMARK  213  A    between atoms: _527  and  _528
REMARK  214  A    between atoms: _531  and  _533
REMARK  215  A    between atoms: _533  and  _534
REMARK  216  A    between atoms: _533  and  _536
REMARK  217  A    between atoms: _536  and  _537
REMARK  218  A    between atoms: _540  and  _542
REMARK  219  A    between atoms: _542  and  _543
REMARK  220  A    between atoms: _542  and  _545
REMARK  221  A    between atoms: _545  and  _546
REMARK  222  A    between atoms: _551  and  _553
REMARK  223  A    between atoms: _553  and  _554
REMARK  224  A    between atoms: _553  and  _556
REMARK  225  A    between atoms: _556  and  _557
REMARK  226  A    between atoms: _560  and  _562
REMARK  227  A    between atoms: _562  and  _563
REMARK  228  A    between atoms: _562  and  _565
REMARK  229  A    between atoms: _565  and  _566
REMARK  230  A    between atoms: _566  and  _567
REMARK  231  A    between atoms: _567  and  _568
REMARK  232  A    between atoms: _577  and  _579
REMARK  233  A    between atoms: _579  and  _580
REMARK  234  A    between atoms: _579  and  _582
REMARK  235  A    between atoms: _582  and  _583
REMARK  236  A    between atoms: _586  and  _588
REMARK  237  A    between atoms: _588  and  _589
REMARK  238  A    between atoms: _588  and  _591
REMARK  239  A    between atoms: _591  and  _592
REMARK  240  A    between atoms: _595  and  _597
REMARK  241  A    between atoms: _597  and  _598
REMARK  242  A    between atoms: _600  and  _602
REMARK  243  A    between atoms: _602  and  _603
REMARK  244  A    between atoms: _602  and  _605
REMARK  245  A    between atoms: _605  and  _606
REMARK  246  A    between atoms: _606  and  _607
REMARK  247  A    between atoms: _607  and  _608
REMARK  248  A    between atoms: _617  and  _619
REMARK  249  A    between atoms: _619  and  _620
REMARK  250  A    between atoms: _619  and  _622
REMARK  251  A    between atoms: _622  and  _623
REMARK  252  A    between atoms: _629  and  _631
REMARK  253  A    between atoms: _631  and  _632
REMARK  254  A    between atoms: _635  and  _637
REMARK  255  A    between atoms: _637  and  _638
REMARK  256  A    between atoms: _637  and  _640
REMARK  257  A    between atoms: _640  and  _641
REMARK  258  A    between atoms: _644  and  _646
REMARK  259  A    between atoms: _646  and  _647
REMARK  260  A    between atoms: _646  and  _649
REMARK  261  A    between atoms: _649  and  _650
REMARK  262  A    between atoms: _652  and  _654
REMARK  263  A    between atoms: _654  and  _655
REMARK  264  A    between atoms: _654  and  _657
REMARK  265  A    between atoms: _657  and  _658
REMARK  266  A    between atoms: _658  and  _659
REMARK  267  A    between atoms: _664  and  _666
REMARK  268  A    between atoms: _666  and  _667
REMARK  269  A    between atoms: _666  and  _669
REMARK  270  A    between atoms: _669  and  _670
REMARK  271  A    between atoms: _672  and  _674
REMARK  272  A    between atoms: _674  and  _675
REMARK  273  A    between atoms: _674  and  _677
REMARK  274  A    between atoms: _677  and  _678
REMARK  275  A    between atoms: _680  and  _682
REMARK  276  A    between atoms: _682  and  _683
REMARK  277  A    between atoms: _682  and  _685
REMARK  278  A    between atoms: _685  and  _686
REMARK  279  A    between atoms: _689  and  _691
REMARK  280  A    between atoms: _691  and  _692
REMARK  281  A    between atoms: _691  and  _694
REMARK  282  A    between atoms: _697  and  _699
REMARK  283  A    between atoms: _699  and  _700
REMARK  284  A    between atoms: _702  and  _704
REMARK  285  A    between atoms: _704  and  _705
REMARK  286  A    between atoms: _708  and  _710
REMARK  287  A    between atoms: _710  and  _711
REMARK  288  A    between atoms: _710  and  _713
REMARK  289  A    between atoms: _716  and  _718
REMARK  290  A    between atoms: _718  and  _719
REMARK  291  A    between atoms: _718  and  _721
REMARK  292  A    between atoms: _721  and  _722
REMARK  293  A    between atoms: _722  and  _723
REMARK  294  A    between atoms: _725  and  _727
REMARK  295  A    between atoms: _727  and  _728
REMARK  296  A    between atoms: _727  and  _730
REMARK  297  A    between atoms: _730  and  _731
REMARK  298  A    between atoms: _731  and  _732
REMARK                            x       y       z     vdW  Elec       q    Type
REMARK                         _______ _______ _______ _____ _____    ______ ____
ROOT
ATOM      1  O   HOH     1       7.173  -0.267  24.798  0.00  0.00    +0.000 OA
ENDROOT
TORSDOF 0
REMARK  Name = ../refined-set-2016/2vkm/2vkm_pocket.pdb
REMARK  298 active torsions:
REMARK  status: ('A' for Active; 'I' for Inactive)
REMARK    1  A    between atoms: _1  and  _3
REMARK    2  A    between atoms: _3  and  _4
REMARK    3  A    between atoms: _6  and  _8
REMARK    4  A    between atoms: _8  and  _9
REMARK    5  A    between atoms: _8  and  _11
REMARK    6  A    between atoms: _11  and  _12
REMARK    7  A    between atoms: _12  and  _13
REMARK    8  A    between atoms: _13  and  _14
REMARK    9  A    between atoms: _14  and  _15
REMARK   10  A    between atoms: _19  and  _21
REMARK   11  A    between atoms: _21  and  _22
REMARK   12  A    between atoms: _21  and  _24
REMARK   13  A    between atoms: _24  and  _25
REMARK   14  A    between atoms: _27  and  _29
REMARK   15  A    between atoms: _29  and  _30
REMARK   16  A    between atoms: _32  and  _34
REMARK   17  A    between atoms: _34  and  _35
REMARK   18  A    between atoms: _34  and  _37
REMARK   19  A    between atoms: _37  and  _38
REMARK   20  A    between atoms: _38  and  _39
REMARK   21  A    between atoms: _44  and  _46
REMARK   22  A    between atoms: _46  and  _47
REMARK   23  A    between atoms: _49  and  _51
REMARK   24  A    between atoms: _51  and  _52
REMARK   25  A    between atoms: _51  and  _54
REMARK   26  A    between atoms: _54  and  _55
REMARK   27  A    between atoms: _60  and  _61
REMARK   28  A    between atoms: _63  and  _65
REMARK   29  A    between atoms: _65  and  _66
REMARK   30  A    between atoms: _65  and  _68
REMARK   31  A    between atoms: _68  and  _69
REMARK   32  A    between atoms: _74  and  _75
REMARK   33  A    between atoms: _77  and  _79
REMARK   34  A    between atoms: _79  and  _80
REMARK   35  A    between atoms: _79  and  _82
REMARK   36  A    between atoms: _82  and  _83
REMARK   37  A    between atoms: _86  and  _88
REMARK   38  A    between atoms: _88  and  _89
REMARK   39  A    between atoms: _88  and  _91
REMARK   40  A    between atoms: _94  and  _96
REMARK   41  A    between atoms: _96  and  _97
REMARK   42  A    between atoms: _96  and  _99
REMARK   43  A    between atoms: _99  and  _100
REMARK   44  A    between atoms: _103  and  _105
REMARK   45  A    between atoms: _105  and  _106
REMARK   46  A    between atoms: _105  and  _108
REMARK   47  A    between atoms: _108  and  _109
REMARK   48  A    between atoms: _112  and  _114
REMARK   49  A    between atoms: _114  and  _115
REMARK   50  A    between atoms: _117  and  _119
REMARK   51  A    between atoms: _119  and  _120
REMARK   52  A    between atoms: _119  and  _122
REMARK   53  A    between atoms: _122  and  _123
REMARK   54  A    between atoms: _125  and  _127
REMARK   55  A    between atoms: _127  and  _128
REMARK   56  A    between atoms: _127  and  _130
REMARK   57  A    between atoms: _130  and  _131
REMARK   58  A    between atoms: _133  and  _135
REMARK   59  A    between atoms: _135  and  _136
REMARK   60  A    between atoms: _135  and  _138
REMARK   61  A    between atoms: _138  and  _139
REMARK   62  A    between atoms: _144  and  _146
REMARK   63  A    between atoms: _146  and  _147
REMARK   64  A    between atoms: _146  and  _149
REMARK   65  A    between atoms: _153  and  _154
REMARK   66  A    between atoms: _159  and  _161
REMARK   67  A    between atoms: _161  and  _162
REMARK   68  A    between atoms: _161  and  _164
REMARK   69  A    between atoms: _164  and  _165
REMARK   70  A    between atoms: _170  and  _171
REMARK   71  A    between atoms: _173  and  _175
REMARK   72  A    between atoms: _175  and  _176
REMARK   73  A    between atoms: _175  and  _178
REMARK   74  A    between atoms: _178  and  _179
REMARK   75  A    between atoms: _182  and  _184
REMARK   76  A    between atoms: _184  and  _185
REMARK   77  A    between atoms: _184  and  _187
REMARK   78  A    between atoms: _187  and  _188
REMARK   79  A    between atoms: _188  and  _189
REMARK   80  A    between atoms: _194  and  _196
REMARK   81  A    between atoms: _196  and  _197
REMARK   82  A    between atoms: _199  and  _201
REMARK   83  A    between atoms: _201  and  _202
REMARK   84  A    between atoms: _201  and  _204
REMARK   85  A    between atoms: _204  and  _205
REMARK   86  A    between atoms: _205  and  _206
REMARK   87  A    between atoms: _206  and  _207
REMARK   88  A    between atoms: _207  and  _208
REMARK   89  A    between atoms: _212  and  _214
REMARK   90  A    between atoms: _214  and  _215
REMARK   91  A    between atoms: _214  and  _217
REMARK   92  A    between atoms: _217  and  _218
REMARK   93  A    between atoms: _228  and  _230
REMARK   94  A    between atoms: _230  and  _231
REMARK   95  A    between atoms: _230  and  _233
REMARK   96  A    between atoms: _233  and  _234
REMARK   97  A    between atoms: _237  and  _239
REMARK   98  A    between atoms: _239  and  _240
REMARK   99  A    between atoms: _239  and  _242
REMARK  100  A    between atoms: _242  and  _243
REMARK  101  A    between atoms: _243  and  _244
REMARK  102  A    between atoms: _244  and  _245
REMARK  103  A    between atoms: _245  and  _246
REMARK  104  A    between atoms: _250  and  _252
REMARK  105  A    between atoms: _252  and  _253
REMARK  106  A    between atoms: _252  and  _255
REMARK  107  A    between atoms: _255  and  _256
REMARK  108  A    between atoms: _262  and  _264
REMARK  109  A    between atoms: _264  and  _265
REMARK  110  A    between atoms: _264  and  _267
REMARK  111  A    between atoms: _267  and  _268
REMARK  112  A    between atoms: _274  and  _276
REMARK  113  A    between atoms: _276  and  _277
REMARK  114  A    between atoms: _276  and  _279
REMARK  115  A    between atoms: _279  and  _280
REMARK  116  A    between atoms: _283  and  _285
REMARK  117  A    between atoms: _285  and  _286
REMARK  118  A    between atoms: _285  and  _288
REMARK  119  A    between atoms: _288  and  _289
REMARK  120  A    between atoms: _291  and  _293
REMARK  121  A    between atoms: _293  and  _294
REMARK  122  A    between atoms: _293  and  _296
REMARK  123  A    between atoms: _296  and  _297
REMARK  124  A    between atoms: _307  and  _309
REMARK  125  A    between atoms: _309  and  _310
REMARK  126  A    between atoms: _312  and  _314
REMARK  127  A    between atoms: _314  and  _315
REMARK  128  A    between atoms: _314  and  _317
REMARK  129  A    between atoms: _317  and  _318
REMARK  130  A    between atoms: _321  and  _323
REMARK  131  A    between atoms: _323  and  _324
REMARK  132  A    between atoms: _323  and  _326
REMARK  133  A    between atoms: _326  and  _327
REMARK  134  A    between atoms: _330  and  _332
REMARK  135  A    between atoms: _332  and  _333
REMARK  136  A    between atoms: _335  and  _337
REMARK  137  A    between atoms: _337  and  _338
REMARK  138  A    between atoms: _337  and  _340
REMARK  139  A    between atoms: _340  and  _341
REMARK  140  A    between atoms: _344  and  _346
REMARK  141  A    between atoms: _346  and  _347
REMARK  142  A    between atoms: _350  and  _352
REMARK  143  A    between atoms: _352  and  _353
REMARK  144  A    between atoms: _352  and  _355
REMARK  145  A    between atoms: _355  and  _356
REMARK  146  A    between atoms: _361  and  _362
REMARK  147  A    between atoms: _364  and  _366
REMARK  148  A    between atoms: _366  and  _367
REMARK  149  A    between atoms: _370  and  _372
REMARK  150  A    between atoms: _372  and  _373
REMARK  151  A    between atoms: _372  and  _375
REMARK  152  A    between atoms: _375  and  _376
REMARK  153  A    between atoms: _376  and  _377
REMARK  154  A    between atoms: _380  and  _382
REMARK  155  A    between atoms: _382  and  _383
REMARK  156  A    between atoms: _382  and  _385
REMARK  157  A    between atoms: _385  and  _386
REMARK  158  A    between atoms: _389  and  _391
REMARK  159  A    between atoms: _391  and  _392
REMARK  160  A    between atoms: _395  and  _397
REMARK  161  A    between atoms: _397  and  _398
REMARK  162  A    between atoms: _397  and  _400
REMARK  163  A    between atoms: _400  and  _401
REMARK  164  A    between atoms: _401  and  _402
REMARK  165  A    between atoms: _402  and  _403
REMARK  166  A    between atoms: _412  and  _414
REMARK  167  A    between atoms: _414  and  _415
REMARK  168  A    between atoms: _414  and  _417
REMARK  169  A    between atoms: _417  and  _418
REMARK  170  A    between atoms: _421  and  _423
REMARK  171  A    between atoms: _423  and  _424
REMARK  172  A    between atoms: _426  and  _428
REMARK  173  A    between atoms: _428  and  _429
REMARK  174  A    between atoms: _428  and  _431
REMARK  175  A    between atoms: _431  and  _432
REMARK  176  A    between atoms: _442  and  _444
REMARK  177  A    between atoms: _444  and  _445
REMARK  178  A    between atoms: _444  and  _447
REMARK  179  A    between atoms: _447  and  _448
REMARK  180  A    between atoms: _453  and  _454
REMARK  181  A    between atoms: _456  and  _458
REMARK  182  A    between atoms: _458  and  _459
REMARK  183  A    between atoms: _458  and  _461
REMARK  184  A    between atoms: _461  and  _462
REMARK  185  A    between atoms: _467  and  _468
REMARK  186  A    between atoms: _470  and  _472
REMARK  187  A    between atoms: _472  and  _473
REMARK  188  A    between atoms: _472  and  _475
REMARK  189  A    between atoms: _475  and  _476
REMARK  190  A    between atoms: _476  and  _477
REMARK  191  A    between atoms: _477  and  _478
REMARK  192  A    between atoms: _478  and  _479
REMARK  193  A    between atoms: _483  and  _485
REMARK  194  A    between atoms: _485  and  _486
REMARK  195  A    between atoms: _485  and  _488
REMARK  196  A    between atoms: _488  and  _489
REMARK  197  A    between atoms: _492  and  _494
REMARK  198  A    between atoms: _494  and  _495
REMARK  199  A    between atoms: _494  and  _497
REMARK  200  A    between atoms: _500  and  _502
REMARK  201  A    between atoms: _502  and  _503
REMARK  202  A    between atoms: _502  and  _505
REMARK  203  A    between atoms: _505  and  _506
REMARK  204  A    between atoms: _509  and  _511
REMARK  205  A    between atoms: _511  and  _512
REMARK  206  A    between atoms: _511  and  _514
REMARK  207  A    between atoms: _514  and  _515
REMARK  208  A    between atoms: _517  and  _519
REMARK  209  A    between atoms: _519  and  _520
REMARK  210  A    between atoms: _522  and  _524
REMARK  211  A    between atoms: _524  and  _525
REMARK  212  A    between atoms: _524  and  _527
REMARK  213  A    between atoms: _527  and  _528
REMARK  214  A    between atoms: _531  and  _533
REMARK  215  A    between atoms: _533  and  _534
REMARK  216  A    between atoms: _533  and  _536
REMARK  217  A    between atoms: _536  and  _537
REMARK  218  A    between atoms: _540  and  _542
REMARK  219  A    between atoms: _542  and  _543
REMARK  220  A    between atoms: _542  and  _545
REMARK  221  A    between atoms: _545  and  _546
REMARK  222  A    between atoms: _551  and  _553
REMARK  223  A    between atoms: _553  and  _554
REMARK  224  A    between atoms: _553  and  _556
REMARK  225  A    between atoms: _556  and  _557
REMARK  226  A    between atoms: _560  and  _562
REMARK  227  A    between atoms: _562  and  _563
REMARK  228  A    between atoms: _562  and  _565
REMARK  229  A    between atoms: _565  and  _566
REMARK  230  A    between atoms: _566  and  _567
REMARK  231  A    between atoms: _567  and  _568
REMARK  232  A    between atoms: _577  and  _579
REMARK  233  A    between atoms: _579  and  _580
REMARK  234  A    between atoms: _579  and  _582
REMARK  235  A    between atoms: _582  and  _583
REMARK  236  A    between atoms: _586  and  _588
REMARK  237  A    between atoms: _588  and  _589
REMARK  238  A    between atoms: _588  and  _591
REMARK  239  A    between atoms: _591  and  _592
REMARK  240  A    between atoms: _595  and  _597
REMARK  241  A    between atoms: _597  and  _598
REMARK  242  A    between atoms: _600  and  _602
REMARK  243  A    between atoms: _602  and  _603
REMARK  244  A    between atoms: _602  and  _605
REMARK  245  A    between atoms: _605  and  _606
REMARK  246  A    between atoms: _606  and  _607
REMARK  247  A    between atoms: _607  and  _608
REMARK  248  A    between atoms: _617  and  _619
REMARK  249  A    between atoms: _619  and  _620
REMARK  250  A    between atoms: _619  and  _622
REMARK  251  A    between atoms: _622  and  _623
REMARK  252  A    between atoms: _629  and  _631
REMARK  253  A    between atoms: _631  and  _632
REMARK  254  A    between atoms: _635  and  _637
REMARK  255  A    between atoms: _637  and  _638
REMARK  256  A    between atoms: _637  and  _640
REMARK  257  A    between atoms: _640  and  _641
REMARK  258  A    between atoms: _644  and  _646
REMARK  259  A    between atoms: _646  and  _647
REMARK  260  A    between atoms: _646  and  _649
REMARK  261  A    between atoms: _649  and  _650
REMARK  262  A    between atoms: _652  and  _654
REMARK  263  A    between atoms: _654  and  _655
REMARK  264  A    between atoms: _654  and  _657
REMARK  265  A    between atoms: _657  and  _658
REMARK  266  A    between atoms: _658  and  _659
REMARK  267  A    between atoms: _664  and  _666
REMARK  268  A    between atoms: _666  and  _667
REMARK  269  A    between atoms: _666  and  _669
REMARK  270  A    between atoms: _669  and  _670
REMARK  271  A    between atoms: _672  and  _674
REMARK  272  A    between atoms: _674  and  _675
REMARK  273  A    between atoms: _674  and  _677
REMARK  274  A    between atoms: _677  and  _678
REMARK  275  A    between atoms: _680  and  _682
REMARK  276  A    between atoms: _682  and  _683
REMARK  277  A    between atoms: _682  and  _685
REMARK  278  A    between atoms: _685  and  _686
REMARK  279  A    between atoms: _689  and  _691
REMARK  280  A    between atoms: _691  and  _692
REMARK  281  A    between atoms: _691  and  _694
REMARK  282  A    between atoms: _697  and  _699
REMARK  283  A    between atoms: _699  and  _700
REMARK  284  A    between atoms: _702  and  _704
REMARK  285  A    between atoms: _704  and  _705
REMARK  286  A    between atoms: _708  and  _710
REMARK  287  A    between atoms: _710  and  _711
REMARK  288  A    between atoms: _710  and  _713
REMARK  289  A    between atoms: _716  and  _718
REMARK  290  A    between atoms: _718  and  _719
REMARK  291  A    between atoms: _718  and  _721
REMARK  292  A    between atoms: _721  and  _722
REMARK  293  A    between atoms: _722  and  _723
REMARK  294  A    between atoms: _725  and  _727
REMARK  295  A    between atoms: _727  and  _728
REMARK  296  A    between atoms: _727  and  _730
REMARK  297  A    between atoms: _730  and  _731
REMARK  298  A    between atoms: _731  and  _732
REMARK                            x       y       z     vdW  Elec       q    Type
REMARK                         _______ _______ _______ _____ _____    ______ ____
ROOT
ATOM      1  O   HOH     1      -0.389   2.576  24.350  0.00  0.00    +0.000 OA
ENDROOT
TORSDOF 0
REMARK  Name = ../refined-set-2016/2vkm/2vkm_pocket.pdb
REMARK  298 active torsions:
REMARK  status: ('A' for Active; 'I' for Inactive)
REMARK    1  A    between atoms: _1  and  _3
REMARK    2  A    between atoms: _3  and  _4
REMARK    3  A    between atoms: _6  and  _8
REMARK    4  A    between atoms: _8  and  _9
REMARK    5  A    between atoms: _8  and  _11
REMARK    6  A    between atoms: _11  and  _12
REMARK    7  A    between atoms: _12  and  _13
REMARK    8  A    between atoms: _13  and  _14
REMARK    9  A    between atoms: _14  and  _15
REMARK   10  A    between atoms: _19  and  _21
REMARK   11  A    between atoms: _21  and  _22
REMARK   12  A    between atoms: _21  and  _24
REMARK   13  A    between atoms: _24  and  _25
REMARK   14  A    between atoms: _27  and  _29
REMARK   15  A    between atoms: _29  and  _30
REMARK   16  A    between atoms: _32  and  _34
REMARK   17  A    between atoms: _34  and  _35
REMARK   18  A    between atoms: _34  and  _37
REMARK   19  A    between atoms: _37  and  _38
REMARK   20  A    between atoms: _38  and  _39
REMARK   21  A    between atoms: _44  and  _46
REMARK   22  A    between atoms: _46  and  _47
REMARK   23  A    between atoms: _49  and  _51
REMARK   24  A    between atoms: _51  and  _52
REMARK   25  A    between atoms: _51  and  _54
REMARK   26  A    between atoms: _54  and  _55
REMARK   27  A    between atoms: _60  and  _61
REMARK   28  A    between atoms: _63  and  _65
REMARK   29  A    between atoms: _65  and  _66
REMARK   30  A    between atoms: _65  and  _68
REMARK   31  A    between atoms: _68  and  _69
REMARK   32  A    between atoms: _74  and  _75
REMARK   33  A    between atoms: _77  and  _79
REMARK   34  A    between atoms: _79  and  _80
REMARK   35  A    between atoms: _79  and  _82
REMARK   36  A    between atoms: _82  and  _83
REMARK   37  A    between atoms: _86  and  _88
REMARK   38  A    between atoms: _88  and  _89
REMARK   39  A    between atoms: _88  and  _91
REMARK   40  A    between atoms: _94  and  _96
REMARK   41  A    between atoms: _96  and  _97
REMARK   42  A    between atoms: _96  and  _99
REMARK   43  A    between atoms: _99  and  _100
REMARK   44  A    between atoms: _103  and  _105
REMARK   45  A    between atoms: _105  and  _106
REMARK   46  A    between atoms: _105  and  _108
REMARK   47  A    between atoms: _108  and  _109
REMARK   48  A    between atoms: _112  and  _114
REMARK   49  A    between atoms: _114  and  _115
REMARK   50  A    between atoms: _117  and  _119
REMARK   51  A    between atoms: _119  and  _120
REMARK   52  A    between atoms: _119  and  _122
REMARK   53  A    between atoms: _122  and  _123
REMARK   54  A    between atoms: _125  and  _127
REMARK   55  A    between atoms: _127  and  _128
REMARK   56  A    between atoms: _127  and  _130
REMARK   57  A    between atoms: _130  and  _131
REMARK   58  A    between atoms: _133  and  _135
REMARK   59  A    between atoms: _135  and  _136
REMARK   60  A    between atoms: _135  and  _138
REMARK   61  A    between atoms: _138  and  _139
REMARK   62  A    between atoms: _144  and  _146
REMARK   63  A    between atoms: _146  and  _147
REMARK   64  A    between atoms: _146  and  _149
REMARK   65  A    between atoms: _153  and  _154
REMARK   66  A    between atoms: _159  and  _161
REMARK   67  A    between atoms: _161  and  _162
REMARK   68  A    between atoms: _161  and  _164
REMARK   69  A    between atoms: _164  and  _165
REMARK   70  A    between atoms: _170  and  _171
REMARK   71  A    between atoms: _173  and  _175
REMARK   72  A    between atoms: _175  and  _176
REMARK   73  A    between atoms: _175  and  _178
REMARK   74  A    between atoms: _178  and  _179
REMARK   75  A    between atoms: _182  and  _184
REMARK   76  A    between atoms: _184  and  _185
REMARK   77  A    between atoms: _184  and  _187
REMARK   78  A    between atoms: _187  and  _188
REMARK   79  A    between atoms: _188  and  _189
REMARK   80  A    between atoms: _194  and  _196
REMARK   81  A    between atoms: _196  and  _197
REMARK   82  A    between atoms: _199  and  _201
REMARK   83  A    between atoms: _201  and  _202
REMARK   84  A    between atoms: _201  and  _204
REMARK   85  A    between atoms: _204  and  _205
REMARK   86  A    between atoms: _205  and  _206
REMARK   87  A    between atoms: _206  and  _207
REMARK   88  A    between atoms: _207  and  _208
REMARK   89  A    between atoms: _212  and  _214
REMARK   90  A    between atoms: _214  and  _215
REMARK   91  A    between atoms: _214  and  _217
REMARK   92  A    between atoms: _217  and  _218
REMARK   93  A    between atoms: _228  and  _230
REMARK   94  A    between atoms: _230  and  _231
REMARK   95  A    between atoms: _230  and  _233
REMARK   96  A    between atoms: _233  and  _234
REMARK   97  A    between atoms: _237  and  _239
REMARK   98  A    between atoms: _239  and  _240
REMARK   99  A    between atoms: _239  and  _242
REMARK  100  A    between atoms: _242  and  _243
REMARK  101  A    between atoms: _243  and  _244
REMARK  102  A    between atoms: _244  and  _245
REMARK  103  A    between atoms: _245  and  _246
REMARK  104  A    between atoms: _250  and  _252
REMARK  105  A    between atoms: _252  and  _253
REMARK  106  A    between atoms: _252  and  _255
REMARK  107  A    between atoms: _255  and  _256
REMARK  108  A    between atoms: _262  and  _264
REMARK  109  A    between atoms: _264  and  _265
REMARK  110  A    between atoms: _264  and  _267
REMARK  111  A    between atoms: _267  and  _268
REMARK  112  A    between atoms: _274  and  _276
REMARK  113  A    between atoms: _276  and  _277
REMARK  114  A    between atoms: _276  and  _279
REMARK  115  A    between atoms: _279  and  _280
REMARK  116  A    between atoms: _283  and  _285
REMARK  117  A    between atoms: _285  and  _286
REMARK  118  A    between atoms: _285  and  _288
REMARK  119  A    between atoms: _288  and  _289
REMARK  120  A    between atoms: _291  and  _293
REMARK  121  A    between atoms: _293  and  _294
REMARK  122  A    between atoms: _293  and  _296
REMARK  123  A    between atoms: _296  and  _297
REMARK  124  A    between atoms: _307  and  _309
REMARK  125  A    between atoms: _309  and  _310
REMARK  126  A    between atoms: _312  and  _314
REMARK  127  A    between atoms: _314  and  _315
REMARK  128  A    between atoms: _314  and  _317
REMARK  129  A    between atoms: _317  and  _318
REMARK  130  A    between atoms: _321  and  _323
REMARK  131  A    between atoms: _323  and  _324
REMARK  132  A    between atoms: _323  and  _326
REMARK  133  A    between atoms: _326  and  _327
REMARK  134  A    between atoms: _330  and  _332
REMARK  135  A    between atoms: _332  and  _333
REMARK  136  A    between atoms: _335  and  _337
REMARK  137  A    between atoms: _337  and  _338
REMARK  138  A    between atoms: _337  and  _340
REMARK  139  A    between atoms: _340  and  _341
REMARK  140  A    between atoms: _344  and  _346
REMARK  141  A    between atoms: _346  and  _347
REMARK  142  A    between atoms: _350  and  _352
REMARK  143  A    between atoms: _352  and  _353
REMARK  144  A    between atoms: _352  and  _355
REMARK  145  A    between atoms: _355  and  _356
REMARK  146  A    between atoms: _361  and  _362
REMARK  147  A    between atoms: _364  and  _366
REMARK  148  A    between atoms: _366  and  _367
REMARK  149  A    between atoms: _370  and  _372
REMARK  150  A    between atoms: _372  and  _373
REMARK  151  A    between atoms: _372  and  _375
REMARK  152  A    between atoms: _375  and  _376
REMARK  153  A    between atoms: _376  and  _377
REMARK  154  A    between atoms: _380  and  _382
REMARK  155  A    between atoms: _382  and  _383
REMARK  156  A    between atoms: _382  and  _385
REMARK  157  A    between atoms: _385  and  _386
REMARK  158  A    between atoms: _389  and  _391
REMARK  159  A    between atoms: _391  and  _392
REMARK  160  A    between atoms: _395  and  _397
REMARK  161  A    between atoms: _397  and  _398
REMARK  162  A    between atoms: _397  and  _400
REMARK  163  A    between atoms: _400  and  _401
REMARK  164  A    between atoms: _401  and  _402
REMARK  165  A    between atoms: _402  and  _403
REMARK  166  A    between atoms: _412  and  _414
REMARK  167  A    between atoms: _414  and  _415
REMARK  168  A    between atoms: _414  and  _417
REMARK  169  A    between atoms: _417  and  _418
REMARK  170  A    between atoms: _421  and  _423
REMARK  171  A    between atoms: _423  and  _424
REMARK  172  A    between atoms: _426  and  _428
REMARK  173  A    between atoms: _428  and  _429
REMARK  174  A    between atoms: _428  and  _431
REMARK  175  A    between atoms: _431  and  _432
REMARK  176  A    between atoms: _442  and  _444
REMARK  177  A    between atoms: _444  and  _445
REMARK  178  A    between atoms: _444  and  _447
REMARK  179  A    between atoms: _447  and  _448
REMARK  180  A    between atoms: _453  and  _454
REMARK  181  A    between atoms: _456  and  _458
REMARK  182  A    between atoms: _458  and  _459
REMARK  183  A    between atoms: _458  and  _461
REMARK  184  A    between atoms: _461  and  _462
REMARK  185  A    between atoms: _467  and  _468
REMARK  186  A    between atoms: _470  and  _472
REMARK  187  A    between atoms: _472  and  _473
REMARK  188  A    between atoms: _472  and  _475
REMARK  189  A    between atoms: _475  and  _476
REMARK  190  A    between atoms: _476  and  _477
REMARK  191  A    between atoms: _477  and  _478
REMARK  192  A    between atoms: _478  and  _479
REMARK  193  A    between atoms: _483  and  _485
REMARK  194  A    between atoms: _485  and  _486
REMARK  195  A    between atoms: _485  and  _488
REMARK  196  A    between atoms: _488  and  _489
REMARK  197  A    between atoms: _492  and  _494
REMARK  198  A    between atoms: _494  and  _495
REMARK  199  A    between atoms: _494  and  _497
REMARK  200  A    between atoms: _500  and  _502
REMARK  201  A    between atoms: _502  and  _503
REMARK  202  A    between atoms: _502  and  _505
REMARK  203  A    between atoms: _505  and  _506
REMARK  204  A    between atoms: _509  and  _511
REMARK  205  A    between atoms: _511  and  _512
REMARK  206  A    between atoms: _511  and  _514
REMARK  207  A    between atoms: _514  and  _515
REMARK  208  A    between atoms: _517  and  _519
REMARK  209  A    between atoms: _519  and  _520
REMARK  210  A    between atoms: _522  and  _524
REMARK  211  A    between atoms: _524  and  _525
REMARK  212  A    between atoms: _524  and  _527
REMARK  213  A    between atoms: _527  and  _528
REMARK  214  A    between atoms: _531  and  _533
REMARK  215  A    between atoms: _533  and  _534
REMARK  216  A    between atoms: _533  and  _536
REMARK  217  A    between atoms: _536  and  _537
REMARK  218  A    between atoms: _540  and  _542
REMARK  219  A    between atoms: _542  and  _543
REMARK  220  A    between atoms: _542  and  _545
REMARK  221  A    between atoms: _545  and  _546
REMARK  222  A    between atoms: _551  and  _553
REMARK  223  A    between atoms: _553  and  _554
REMARK  224  A    between atoms: _553  and  _556
REMARK  225  A    between atoms: _556  and  _557
REMARK  226  A    between atoms: _560  and  _562
REMARK  227  A    between atoms: _562  and  _563
REMARK  228  A    between atoms: _562  and  _565
REMARK  229  A    between atoms: _565  and  _566
REMARK  230  A    between atoms: _566  and  _567
REMARK  231  A    between atoms: _567  and  _568
REMARK  232  A    between atoms: _577  and  _579
REMARK  233  A    between atoms: _579  and  _580
REMARK  234  A    between atoms: _579  and  _582
REMARK  235  A    between atoms: _582  and  _583
REMARK  236  A    between atoms: _586  and  _588
REMARK  237  A    between atoms: _588  and  _589
REMARK  238  A    between atoms: _588  and  _591
REMARK  239  A    between atoms: _591  and  _592
REMARK  240  A    between atoms: _595  and  _597
REMARK  241  A    between atoms: _597  and  _598
REMARK  242  A    between atoms: _600  and  _602
REMARK  243  A    between atoms: _602  and  _603
REMARK  244  A    between atoms: _602  and  _605
REMARK  245  A    between atoms: _605  and  _606
REMARK  246  A    between atoms: _606  and  _607
REMARK  247  A    between atoms: _607  and  _608
REMARK  248  A    between atoms: _617  and  _619
REMARK  249  A    between atoms: _619  and  _620
REMARK  250  A    between atoms: _619  and  _622
REMARK  251  A    between atoms: _622  and  _623
REMARK  252  A    between atoms: _629  and  _631
REMARK  253  A    between atoms: _631  and  _632
REMARK  254  A    between atoms: _635  and  _637
REMARK  255  A    between atoms: _637  and  _638
REMARK  256  A    between atoms: _637  and  _640
REMARK  257  A    between atoms: _640  and  _641
REMARK  258  A    between atoms: _644  and  _646
REMARK  259  A    between atoms: _646  and  _647
REMARK  260  A    between atoms: _646  and  _649
REMARK  261  A    between atoms: _649  and  _650
REMARK  262  A    between atoms: _652  and  _654
REMARK  263  A    between atoms: _654  and  _655
REMARK  264  A    between atoms: _654  and  _657
REMARK  265  A    between atoms: _657  and  _658
REMARK  266  A    between atoms: _658  and  _659
REMARK  267  A    between atoms: _664  and  _666
REMARK  268  A    between atoms: _666  and  _667
REMARK  269  A    between atoms: _666  and  _669
REMARK  270  A    between atoms: _669  and  _670
REMARK  271  A    between atoms: _672  and  _674
REMARK  272  A    between atoms: _674  and  _675
REMARK  273  A    between atoms: _674  and  _677
REMARK  274  A    between atoms: _677  and  _678
REMARK  275  A    between atoms: _680  and  _682
REMARK  276  A    between atoms: _682  and  _683
REMARK  277  A    between atoms: _682  and  _685
REMARK  278  A    between atoms: _685  and  _686
REMARK  279  A    between atoms: _689  and  _691
REMARK  280  A    between atoms: _691  and  _692
REMARK  281  A    between atoms: _691  and  _694
REMARK  282  A    between atoms: _697  and  _699
REMARK  283  A    between atoms: _699  and  _700
REMARK  284  A    between atoms: _702  and  _704
REMARK  285  A    between atoms: _704  and  _705
REMARK  286  A    between atoms: _708  and  _710
REMARK  287  A    between atoms: _710  and  _711
REMARK  288  A    between atoms: _710  and  _713
REMARK  289  A    between atoms: _716  and  _718
REMARK  290  A    between atoms: _718  and  _719
REMARK  291  A    between atoms: _718  and  _721
REMARK  292  A    between atoms: _721  and  _722
REMARK  293  A    between atoms: _722  and  _723
REMARK  294  A    between atoms: _725  and  _727
REMARK  295  A    between atoms: _727  and  _728
REMARK  296  A    between atoms: _727  and  _730
REMARK  297  A    between atoms: _730  and  _731
REMARK  298  A    between atoms: _731  and  _732
REMARK                            x       y       z     vdW  Elec       q    Type
REMARK                         _______ _______ _______ _____ _____    ______ ____
ROOT
ATOM      1  O   HOH     1       2.499   4.930  20.779  0.00  0.00    +0.000 OA
ENDROOT
TORSDOF 0
REMARK  Name = ../refined-set-2016/2vkm/2vkm_pocket.pdb
REMARK  298 active torsions:
REMARK  status: ('A' for Active; 'I' for Inactive)
REMARK    1  A    between atoms: _1  and  _3
REMARK    2  A    between atoms: _3  and  _4
REMARK    3  A    between atoms: _6  and  _8
REMARK    4  A    between atoms: _8  and  _9
REMARK    5  A    between atoms: _8  and  _11
REMARK    6  A    between atoms: _11  and  _12
REMARK    7  A    between atoms: _12  and  _13
REMARK    8  A    between atoms: _13  and  _14
REMARK    9  A    between atoms: _14  and  _15
REMARK   10  A    between atoms: _19  and  _21
REMARK   11  A    between atoms: _21  and  _22
REMARK   12  A    between atoms: _21  and  _24
REMARK   13  A    between atoms: _24  and  _25
REMARK   14  A    between atoms: _27  and  _29
REMARK   15  A    between atoms: _29  and  _30
REMARK   16  A    between atoms: _32  and  _34
REMARK   17  A    between atoms: _34  and  _35
REMARK   18  A    between atoms: _34  and  _37
REMARK   19  A    between atoms: _37  and  _38
REMARK   20  A    between atoms: _38  and  _39
REMARK   21  A    between atoms: _44  and  _46
REMARK   22  A    between atoms: _46  and  _47
REMARK   23  A    between atoms: _49  and  _51
REMARK   24  A    between atoms: _51  and  _52
REMARK   25  A    between atoms: _51  and  _54
REMARK   26  A    between atoms: _54  and  _55
REMARK   27  A    between atoms: _60  and  _61
REMARK   28  A    between atoms: _63  and  _65
REMARK   29  A    between atoms: _65  and  _66
REMARK   30  A    between atoms: _65  and  _68
REMARK   31  A    between atoms: _68  and  _69
REMARK   32  A    between atoms: _74  and  _75
REMARK   33  A    between atoms: _77  and  _79
REMARK   34  A    between atoms: _79  and  _80
REMARK   35  A    between atoms: _79  and  _82
REMARK   36  A    between atoms: _82  and  _83
REMARK   37  A    between atoms: _86  and  _88
REMARK   38  A    between atoms: _88  and  _89
REMARK   39  A    between atoms: _88  and  _91
REMARK   40  A    between atoms: _94  and  _96
REMARK   41  A    between atoms: _96  and  _97
REMARK   42  A    between atoms: _96  and  _99
REMARK   43  A    between atoms: _99  and  _100
REMARK   44  A    between atoms: _103  and  _105
REMARK   45  A    between atoms: _105  and  _106
REMARK   46  A    between atoms: _105  and  _108
REMARK   47  A    between atoms: _108  and  _109
REMARK   48  A    between atoms: _112  and  _114
REMARK   49  A    between atoms: _114  and  _115
REMARK   50  A    between atoms: _117  and  _119
REMARK   51  A    between atoms: _119  and  _120
REMARK   52  A    between atoms: _119  and  _122
REMARK   53  A    between atoms: _122  and  _123
REMARK   54  A    between atoms: _125  and  _127
REMARK   55  A    between atoms: _127  and  _128
REMARK   56  A    between atoms: _127  and  _130
REMARK   57  A    between atoms: _130  and  _131
REMARK   58  A    between atoms: _133  and  _135
REMARK   59  A    between atoms: _135  and  _136
REMARK   60  A    between atoms: _135  and  _138
REMARK   61  A    between atoms: _138  and  _139
REMARK   62  A    between atoms: _144  and  _146
REMARK   63  A    between atoms: _146  and  _147
REMARK   64  A    between atoms: _146  and  _149
REMARK   65  A    between atoms: _153  and  _154
REMARK   66  A    between atoms: _159  and  _161
REMARK   67  A    between atoms: _161  and  _162
REMARK   68  A    between atoms: _161  and  _164
REMARK   69  A    between atoms: _164  and  _165
REMARK   70  A    between atoms: _170  and  _171
REMARK   71  A    between atoms: _173  and  _175
REMARK   72  A    between atoms: _175  and  _176
REMARK   73  A    between atoms: _175  and  _178
REMARK   74  A    between atoms: _178  and  _179
REMARK   75  A    between atoms: _182  and  _184
REMARK   76  A    between atoms: _184  and  _185
REMARK   77  A    between atoms: _184  and  _187
REMARK   78  A    between atoms: _187  and  _188
REMARK   79  A    between atoms: _188  and  _189
REMARK   80  A    between atoms: _194  and  _196
REMARK   81  A    between atoms: _196  and  _197
REMARK   82  A    between atoms: _199  and  _201
REMARK   83  A    between atoms: _201  and  _202
REMARK   84  A    between atoms: _201  and  _204
REMARK   85  A    between atoms: _204  and  _205
REMARK   86  A    between atoms: _205  and  _206
REMARK   87  A    between atoms: _206  and  _207
REMARK   88  A    between atoms: _207  and  _208
REMARK   89  A    between atoms: _212  and  _214
REMARK   90  A    between atoms: _214  and  _215
REMARK   91  A    between atoms: _214  and  _217
REMARK   92  A    between atoms: _217  and  _218
REMARK   93  A    between atoms: _228  and  _230
REMARK   94  A    between atoms: _230  and  _231
REMARK   95  A    between atoms: _230  and  _233
REMARK   96  A    between atoms: _233  and  _234
REMARK   97  A    between atoms: _237  and  _239
REMARK   98  A    between atoms: _239  and  _240
REMARK   99  A    between atoms: _239  and  _242
REMARK  100  A    between atoms: _242  and  _243
REMARK  101  A    between atoms: _243  and  _244
REMARK  102  A    between atoms: _244  and  _245
REMARK  103  A    between atoms: _245  and  _246
REMARK  104  A    between atoms: _250  and  _252
REMARK  105  A    between atoms: _252  and  _253
REMARK  106  A    between atoms: _252  and  _255
REMARK  107  A    between atoms: _255  and  _256
REMARK  108  A    between atoms: _262  and  _264
REMARK  109  A    between atoms: _264  and  _265
REMARK  110  A    between atoms: _264  and  _267
REMARK  111  A    between atoms: _267  and  _268
REMARK  112  A    between atoms: _274  and  _276
REMARK  113  A    between atoms: _276  and  _277
REMARK  114  A    between atoms: _276  and  _279
REMARK  115  A    between atoms: _279  and  _280
REMARK  116  A    between atoms: _283  and  _285
REMARK  117  A    between atoms: _285  and  _286
REMARK  118  A    between atoms: _285  and  _288
REMARK  119  A    between atoms: _288  and  _289
REMARK  120  A    between atoms: _291  and  _293
REMARK  121  A    between atoms: _293  and  _294
REMARK  122  A    between atoms: _293  and  _296
REMARK  123  A    between atoms: _296  and  _297
REMARK  124  A    between atoms: _307  and  _309
REMARK  125  A    between atoms: _309  and  _310
REMARK  126  A    between atoms: _312  and  _314
REMARK  127  A    between atoms: _314  and  _315
REMARK  128  A    between atoms: _314  and  _317
REMARK  129  A    between atoms: _317  and  _318
REMARK  130  A    between atoms: _321  and  _323
REMARK  131  A    between atoms: _323  and  _324
REMARK  132  A    between atoms: _323  and  _326
REMARK  133  A    between atoms: _326  and  _327
REMARK  134  A    between atoms: _330  and  _332
REMARK  135  A    between atoms: _332  and  _333
REMARK  136  A    between atoms: _335  and  _337
REMARK  137  A    between atoms: _337  and  _338
REMARK  138  A    between atoms: _337  and  _340
REMARK  139  A    between atoms: _340  and  _341
REMARK  140  A    between atoms: _344  and  _346
REMARK  141  A    between atoms: _346  and  _347
REMARK  142  A    between atoms: _350  and  _352
REMARK  143  A    between atoms: _352  and  _353
REMARK  144  A    between atoms: _352  and  _355
REMARK  145  A    between atoms: _355  and  _356
REMARK  146  A    between atoms: _361  and  _362
REMARK  147  A    between atoms: _364  and  _366
REMARK  148  A    between atoms: _366  and  _367
REMARK  149  A    between atoms: _370  and  _372
REMARK  150  A    between atoms: _372  and  _373
REMARK  151  A    between atoms: _372  and  _375
REMARK  152  A    between atoms: _375  and  _376
REMARK  153  A    between atoms: _376  and  _377
REMARK  154  A    between atoms: _380  and  _382
REMARK  155  A    between atoms: _382  and  _383
REMARK  156  A    between atoms: _382  and  _385
REMARK  157  A    between atoms: _385  and  _386
REMARK  158  A    between atoms: _389  and  _391
REMARK  159  A    between atoms: _391  and  _392
REMARK  160  A    between atoms: _395  and  _397
REMARK  161  A    between atoms: _397  and  _398
REMARK  162  A    between atoms: _397  and  _400
REMARK  163  A    between atoms: _400  and  _401
REMARK  164  A    between atoms: _401  and  _402
REMARK  165  A    between atoms: _402  and  _403
REMARK  166  A    between atoms: _412  and  _414
REMARK  167  A    between atoms: _414  and  _415
REMARK  168  A    between atoms: _414  and  _417
REMARK  169  A    between atoms: _417  and  _418
REMARK  170  A    between atoms: _421  and  _423
REMARK  171  A    between atoms: _423  and  _424
REMARK  172  A    between atoms: _426  and  _428
REMARK  173  A    between atoms: _428  and  _429
REMARK  174  A    between atoms: _428  and  _431
REMARK  175  A    between atoms: _431  and  _432
REMARK  176  A    between atoms: _442  and  _444
REMARK  177  A    between atoms: _444  and  _445
REMARK  178  A    between atoms: _444  and  _447
REMARK  179  A    between atoms: _447  and  _448
REMARK  180  A    between atoms: _453  and  _454
REMARK  181  A    between atoms: _456  and  _458
REMARK  182  A    between atoms: _458  and  _459
REMARK  183  A    between atoms: _458  and  _461
REMARK  184  A    between atoms: _461  and  _462
REMARK  185  A    between atoms: _467  and  _468
REMARK  186  A    between atoms: _470  and  _472
REMARK  187  A    between atoms: _472  and  _473
REMARK  188  A    between atoms: _472  and  _475
REMARK  189  A    between atoms: _475  and  _476
REMARK  190  A    between atoms: _476  and  _477
REMARK  191  A    between atoms: _477  and  _478
REMARK  192  A    between atoms: _478  and  _479
REMARK  193  A    between atoms: _483  and  _485
REMARK  194  A    between atoms: _485  and  _486
REMARK  195  A    between atoms: _485  and  _488
REMARK  196  A    between atoms: _488  and  _489
REMARK  197  A    between atoms: _492  and  _494
REMARK  198  A    between atoms: _494  and  _495
REMARK  199  A    between atoms: _494  and  _497
REMARK  200  A    between atoms: _500  and  _502
REMARK  201  A    between atoms: _502  and  _503
REMARK  202  A    between atoms: _502  and  _505
REMARK  203  A    between atoms: _505  and  _506
REMARK  204  A    between atoms: _509  and  _511
REMARK  205  A    between atoms: _511  and  _512
REMARK  206  A    between atoms: _511  and  _514
REMARK  207  A    between atoms: _514  and  _515
REMARK  208  A    between atoms: _517  and  _519
REMARK  209  A    between atoms: _519  and  _520
REMARK  210  A    between atoms: _522  and  _524
REMARK  211  A    between atoms: _524  and  _525
REMARK  212  A    between atoms: _524  and  _527
REMARK  213  A    between atoms: _527  and  _528
REMARK  214  A    between atoms: _531  and  _533
REMARK  215  A    between atoms: _533  and  _534
REMARK  216  A    between atoms: _533  and  _536
REMARK  217  A    between atoms: _536  and  _537
REMARK  218  A    between atoms: _540  and  _542
REMARK  219  A    between atoms: _542  and  _543
REMARK  220  A    between atoms: _542  and  _545
REMARK  221  A    between atoms: _545  and  _546
REMARK  222  A    between atoms: _551  and  _553
REMARK  223  A    between atoms: _553  and  _554
REMARK  224  A    between atoms: _553  and  _556
REMARK  225  A    between atoms: _556  and  _557
REMARK  226  A    between atoms: _560  and  _562
REMARK  227  A    between atoms: _562  and  _563
REMARK  228  A    between atoms: _562  and  _565
REMARK  229  A    between atoms: _565  and  _566
REMARK  230  A    between atoms: _566  and  _567
REMARK  231  A    between atoms: _567  and  _568
REMARK  232  A    between atoms: _577  and  _579
REMARK  233  A    between atoms: _579  and  _580
REMARK  234  A    between atoms: _579  and  _582
REMARK  235  A    between atoms: _582  and  _583
REMARK  236  A    between atoms: _586  and  _588
REMARK  237  A    between atoms: _588  and  _589
REMARK  238  A    between atoms: _588  and  _591
REMARK  239  A    between atoms: _591  and  _592
REMARK  240  A    between atoms: _595  and  _597
REMARK  241  A    between atoms: _597  and  _598
REMARK  242  A    between atoms: _600  and  _602
REMARK  243  A    between atoms: _602  and  _603
REMARK  244  A    between atoms: _602  and  _605
REMARK  245  A    between atoms: _605  and  _606
REMARK  246  A    between atoms: _606  and  _607
REMARK  247  A    between atoms: _607  and  _608
REMARK  248  A    between atoms: _617  and  _619
REMARK  249  A    between atoms: _619  and  _620
REMARK  250  A    between atoms: _619  and  _622
REMARK  251  A    between atoms: _622  and  _623
REMARK  252  A    between atoms: _629  and  _631
REMARK  253  A    between atoms: _631  and  _632
REMARK  254  A    between atoms: _635  and  _637
REMARK  255  A    between atoms: _637  and  _638
REMARK  256  A    between atoms: _637  and  _640
REMARK  257  A    between atoms: _640  and  _641
REMARK  258  A    between atoms: _644  and  _646
REMARK  259  A    between atoms: _646  and  _647
REMARK  260  A    between atoms: _646  and  _649
REMARK  261  A    between atoms: _649  and  _650
REMARK  262  A    between atoms: _652  and  _654
REMARK  263  A    between atoms: _654  and  _655
REMARK  264  A    between atoms: _654  and  _657
REMARK  265  A    between atoms: _657  and  _658
REMARK  266  A    between atoms: _658  and  _659
REMARK  267  A    between atoms: _664  and  _666
REMARK  268  A    between atoms: _666  and  _667
REMARK  269  A    between atoms: _666  and  _669
REMARK  270  A    between atoms: _669  and  _670
REMARK  271  A    between atoms: _672  and  _674
REMARK  272  A    between atoms: _674  and  _675
REMARK  273  A    between atoms: _674  and  _677
REMARK  274  A    between atoms: _677  and  _678
REMARK  275  A    between atoms: _680  and  _682
REMARK  276  A    between atoms: _682  and  _683
REMARK  277  A    between atoms: _682  and  _685
REMARK  278  A    between atoms: _685  and  _686
REMARK  279  A    between atoms: _689  and  _691
REMARK  280  A    between atoms: _691  and  _692
REMARK  281  A    between atoms: _691  and  _694
REMARK  282  A    between atoms: _697  and  _699
REMARK  283  A    between atoms: _699  and  _700
REMARK  284  A    between atoms: _702  and  _704
REMARK  285  A    between atoms: _704  and  _705
REMARK  286  A    between atoms: _708  and  _710
REMARK  287  A    between atoms: _710  and  _711
REMARK  288  A    between atoms: _710  and  _713
REMARK  289  A    between atoms: _716  and  _718
REMARK  290  A    between atoms: _718  and  _719
REMARK  291  A    between atoms: _718  and  _721
REMARK  292  A    between atoms: _721  and  _722
REMARK  293  A    between atoms: _722  and  _723
REMARK  294  A    between atoms: _725  and  _727
REMARK  295  A    between atoms: _727  and  _728
REMARK  296  A    between atoms: _727  and  _730
REMARK  297  A    between atoms: _730  and  _731
REMARK  298  A    between atoms: _731  and  _732
REMARK                            x       y       z     vdW  Elec       q    Type
REMARK                         _______ _______ _______ _____ _____    ______ ____
ROOT
ATOM      1  O   HOH     1      -5.532   3.001  22.596  0.00  0.00    +0.000 OA
ENDROOT
TORSDOF 0
REMARK  Name = ../refined-set-2016/2vkm/2vkm_pocket.pdb
REMARK  298 active torsions:
REMARK  status: ('A' for Active; 'I' for Inactive)
REMARK    1  A    between atoms: _1  and  _3
REMARK    2  A    between atoms: _3  and  _4
REMARK    3  A    between atoms: _6  and  _8
REMARK    4  A    between atoms: _8  and  _9
REMARK    5  A    between atoms: _8  and  _11
REMARK    6  A    between atoms: _11  and  _12
REMARK    7  A    between atoms: _12  and  _13
REMARK    8  A    between atoms: _13  and  _14
REMARK    9  A    between atoms: _14  and  _15
REMARK   10  A    between atoms: _19  and  _21
REMARK   11  A    between atoms: _21  and  _22
REMARK   12  A    between atoms: _21  and  _24
REMARK   13  A    between atoms: _24  and  _25
REMARK   14  A    between atoms: _27  and  _29
REMARK   15  A    between atoms: _29  and  _30
REMARK   16  A    between atoms: _32  and  _34
REMARK   17  A    between atoms: _34  and  _35
REMARK   18  A    between atoms: _34  and  _37
REMARK   19  A    between atoms: _37  and  _38
REMARK   20  A    between atoms: _38  and  _39
REMARK   21  A    between atoms: _44  and  _46
REMARK   22  A    between atoms: _46  and  _47
REMARK   23  A    between atoms: _49  and  _51
REMARK   24  A    between atoms: _51  and  _52
REMARK   25  A    between atoms: _51  and  _54
REMARK   26  A    between atoms: _54  and  _55
REMARK   27  A    between atoms: _60  and  _61
REMARK   28  A    between atoms: _63  and  _65
REMARK   29  A    between atoms: _65  and  _66
REMARK   30  A    between atoms: _65  and  _68
REMARK   31  A    between atoms: _68  and  _69
REMARK   32  A    between atoms: _74  and  _75
REMARK   33  A    between atoms: _77  and  _79
REMARK   34  A    between atoms: _79  and  _80
REMARK   35  A    between atoms: _79  and  _82
REMARK   36  A    between atoms: _82  and  _83
REMARK   37  A    between atoms: _86  and  _88
REMARK   38  A    between atoms: _88  and  _89
REMARK   39  A    between atoms: _88  and  _91
REMARK   40  A    between atoms: _94  and  _96
REMARK   41  A    between atoms: _96  and  _97
REMARK   42  A    between atoms: _96  and  _99
REMARK   43  A    between atoms: _99  and  _100
REMARK   44  A    between atoms: _103  and  _105
REMARK   45  A    between atoms: _105  and  _106
REMARK   46  A    between atoms: _105  and  _108
REMARK   47  A    between atoms: _108  and  _109
REMARK   48  A    between atoms: _112  and  _114
REMARK   49  A    between atoms: _114  and  _115
REMARK   50  A    between atoms: _117  and  _119
REMARK   51  A    between atoms: _119  and  _120
REMARK   52  A    between atoms: _119  and  _122
REMARK   53  A    between atoms: _122  and  _123
REMARK   54  A    between atoms: _125  and  _127
REMARK   55  A    between atoms: _127  and  _128
REMARK   56  A    between atoms: _127  and  _130
REMARK   57  A    between atoms: _130  and  _131
REMARK   58  A    between atoms: _133  and  _135
REMARK   59  A    between atoms: _135  and  _136
REMARK   60  A    between atoms: _135  and  _138
REMARK   61  A    between atoms: _138  and  _139
REMARK   62  A    between atoms: _144  and  _146
REMARK   63  A    between atoms: _146  and  _147
REMARK   64  A    between atoms: _146  and  _149
REMARK   65  A    between atoms: _153  and  _154
REMARK   66  A    between atoms: _159  and  _161
REMARK   67  A    between atoms: _161  and  _162
REMARK   68  A    between atoms: _161  and  _164
REMARK   69  A    between atoms: _164  and  _165
REMARK   70  A    between atoms: _170  and  _171
REMARK   71  A    between atoms: _173  and  _175
REMARK   72  A    between atoms: _175  and  _176
REMARK   73  A    between atoms: _175  and  _178
REMARK   74  A    between atoms: _178  and  _179
REMARK   75  A    between atoms: _182  and  _184
REMARK   76  A    between atoms: _184  and  _185
REMARK   77  A    between atoms: _184  and  _187
REMARK   78  A    between atoms: _187  and  _188
REMARK   79  A    between atoms: _188  and  _189
REMARK   80  A    between atoms: _194  and  _196
REMARK   81  A    between atoms: _196  and  _197
REMARK   82  A    between atoms: _199  and  _201
REMARK   83  A    between atoms: _201  and  _202
REMARK   84  A    between atoms: _201  and  _204
REMARK   85  A    between atoms: _204  and  _205
REMARK   86  A    between atoms: _205  and  _206
REMARK   87  A    between atoms: _206  and  _207
REMARK   88  A    between atoms: _207  and  _208
REMARK   89  A    between atoms: _212  and  _214
REMARK   90  A    between atoms: _214  and  _215
REMARK   91  A    between atoms: _214  and  _217
REMARK   92  A    between atoms: _217  and  _218
REMARK   93  A    between atoms: _228  and  _230
REMARK   94  A    between atoms: _230  and  _231
REMARK   95  A    between atoms: _230  and  _233
REMARK   96  A    between atoms: _233  and  _234
REMARK   97  A    between atoms: _237  and  _239
REMARK   98  A    between atoms: _239  and  _240
REMARK   99  A    between atoms: _239  and  _242
REMARK  100  A    between atoms: _242  and  _243
REMARK  101  A    between atoms: _243  and  _244
REMARK  102  A    between atoms: _244  and  _245
REMARK  103  A    between atoms: _245  and  _246
REMARK  104  A    between atoms: _250  and  _252
REMARK  105  A    between atoms: _252  and  _253
REMARK  106  A    between atoms: _252  and  _255
REMARK  107  A    between atoms: _255  and  _256
REMARK  108  A    between atoms: _262  and  _264
REMARK  109  A    between atoms: _264  and  _265
REMARK  110  A    between atoms: _264  and  _267
REMARK  111  A    between atoms: _267  and  _268
REMARK  112  A    between atoms: _274  and  _276
REMARK  113  A    between atoms: _276  and  _277
REMARK  114  A    between atoms: _276  and  _279
REMARK  115  A    between atoms: _279  and  _280
REMARK  116  A    between atoms: _283  and  _285
REMARK  117  A    between atoms: _285  and  _286
REMARK  118  A    between atoms: _285  and  _288
REMARK  119  A    between atoms: _288  and  _289
REMARK  120  A    between atoms: _291  and  _293
REMARK  121  A    between atoms: _293  and  _294
REMARK  122  A    between atoms: _293  and  _296
REMARK  123  A    between atoms: _296  and  _297
REMARK  124  A    between atoms: _307  and  _309
REMARK  125  A    between atoms: _309  and  _310
REMARK  126  A    between atoms: _312  and  _314
REMARK  127  A    between atoms: _314  and  _315
REMARK  128  A    between atoms: _314  and  _317
REMARK  129  A    between atoms: _317  and  _318
REMARK  130  A    between atoms: _321  and  _323
REMARK  131  A    between atoms: _323  and  _324
REMARK  132  A    between atoms: _323  and  _326
REMARK  133  A    between atoms: _326  and  _327
REMARK  134  A    between atoms: _330  and  _332
REMARK  135  A    between atoms: _332  and  _333
REMARK  136  A    between atoms: _335  and  _337
REMARK  137  A    between atoms: _337  and  _338
REMARK  138  A    between atoms: _337  and  _340
REMARK  139  A    between atoms: _340  and  _341
REMARK  140  A    between atoms: _344  and  _346
REMARK  141  A    between atoms: _346  and  _347
REMARK  142  A    between atoms: _350  and  _352
REMARK  143  A    between atoms: _352  and  _353
REMARK  144  A    between atoms: _352  and  _355
REMARK  145  A    between atoms: _355  and  _356
REMARK  146  A    between atoms: _361  and  _362
REMARK  147  A    between atoms: _364  and  _366
REMARK  148  A    between atoms: _366  and  _367
REMARK  149  A    between atoms: _370  and  _372
REMARK  150  A    between atoms: _372  and  _373
REMARK  151  A    between atoms: _372  and  _375
REMARK  152  A    between atoms: _375  and  _376
REMARK  153  A    between atoms: _376  and  _377
REMARK  154  A    between atoms: _380  and  _382
REMARK  155  A    between atoms: _382  and  _383
REMARK  156  A    between atoms: _382  and  _385
REMARK  157  A    between atoms: _385  and  _386
REMARK  158  A    between atoms: _389  and  _391
REMARK  159  A    between atoms: _391  and  _392
REMARK  160  A    between atoms: _395  and  _397
REMARK  161  A    between atoms: _397  and  _398
REMARK  162  A    between atoms: _397  and  _400
REMARK  163  A    between atoms: _400  and  _401
REMARK  164  A    between atoms: _401  and  _402
REMARK  165  A    between atoms: _402  and  _403
REMARK  166  A    between atoms: _412  and  _414
REMARK  167  A    between atoms: _414  and  _415
REMARK  168  A    between atoms: _414  and  _417
REMARK  169  A    between atoms: _417  and  _418
REMARK  170  A    between atoms: _421  and  _423
REMARK  171  A    between atoms: _423  and  _424
REMARK  172  A    between atoms: _426  and  _428
REMARK  173  A    between atoms: _428  and  _429
REMARK  174  A    between atoms: _428  and  _431
REMARK  175  A    between atoms: _431  and  _432
REMARK  176  A    between atoms: _442  and  _444
REMARK  177  A    between atoms: _444  and  _445
REMARK  178  A    between atoms: _444  and  _447
REMARK  179  A    between atoms: _447  and  _448
REMARK  180  A    between atoms: _453  and  _454
REMARK  181  A    between atoms: _456  and  _458
REMARK  182  A    between atoms: _458  and  _459
REMARK  183  A    between atoms: _458  and  _461
REMARK  184  A    between atoms: _461  and  _462
REMARK  185  A    between atoms: _467  and  _468
REMARK  186  A    between atoms: _470  and  _472
REMARK  187  A    between atoms: _472  and  _473
REMARK  188  A    between atoms: _472  and  _475
REMARK  189  A    between atoms: _475  and  _476
REMARK  190  A    between atoms: _476  and  _477
REMARK  191  A    between atoms: _477  and  _478
REMARK  192  A    between atoms: _478  and  _479
REMARK  193  A    between atoms: _483  and  _485
REMARK  194  A    between atoms: _485  and  _486
REMARK  195  A    between atoms: _485  and  _488
REMARK  196  A    between atoms: _488  and  _489
REMARK  197  A    between atoms: _492  and  _494
REMARK  198  A    between atoms: _494  and  _495
REMARK  199  A    between atoms: _494  and  _497
REMARK  200  A    between atoms: _500  and  _502
REMARK  201  A    between atoms: _502  and  _503
REMARK  202  A    between atoms: _502  and  _505
REMARK  203  A    between atoms: _505  and  _506
REMARK  204  A    between atoms: _509  and  _511
REMARK  205  A    between atoms: _511  and  _512
REMARK  206  A    between atoms: _511  and  _514
REMARK  207  A    between atoms: _514  and  _515
REMARK  208  A    between atoms: _517  and  _519
REMARK  209  A    between atoms: _519  and  _520
REMARK  210  A    between atoms: _522  and  _524
REMARK  211  A    between atoms: _524  and  _525
REMARK  212  A    between atoms: _524  and  _527
REMARK  213  A    between atoms: _527  and  _528
REMARK  214  A    between atoms: _531  and  _533
REMARK  215  A    between atoms: _533  and  _534
REMARK  216  A    between atoms: _533  and  _536
REMARK  217  A    between atoms: _536  and  _537
REMARK  218  A    between atoms: _540  and  _542
REMARK  219  A    between atoms: _542  and  _543
REMARK  220  A    between atoms: _542  and  _545
REMARK  221  A    between atoms: _545  and  _546
REMARK  222  A    between atoms: _551  and  _553
REMARK  223  A    between atoms: _553  and  _554
REMARK  224  A    between atoms: _553  and  _556
REMARK  225  A    between atoms: _556  and  _557
REMARK  226  A    between atoms: _560  and  _562
REMARK  227  A    between atoms: _562  and  _563
REMARK  228  A    between atoms: _562  and  _565
REMARK  229  A    between atoms: _565  and  _566
REMARK  230  A    between atoms: _566  and  _567
REMARK  231  A    between atoms: _567  and  _568
REMARK  232  A    between atoms: _577  and  _579
REMARK  233  A    between atoms: _579  and  _580
REMARK  234  A    between atoms: _579  and  _582
REMARK  235  A    between atoms: _582  and  _583
REMARK  236  A    between atoms: _586  and  _588
REMARK  237  A    between atoms: _588  and  _589
REMARK  238  A    between atoms: _588  and  _591
REMARK  239  A    between atoms: _591  and  _592
REMARK  240  A    between atoms: _595  and  _597
REMARK  241  A    between atoms: _597  and  _598
REMARK  242  A    between atoms: _600  and  _602
REMARK  243  A    between atoms: _602  and  _603
REMARK  244  A    between atoms: _602  and  _605
REMARK  245  A    between atoms: _605  and  _606
REMARK  246  A    between atoms: _606  and  _607
REMARK  247  A    between atoms: _607  and  _608
REMARK  248  A    between atoms: _617  and  _619
REMARK  249  A    between atoms: _619  and  _620
REMARK  250  A    between atoms: _619  and  _622
REMARK  251  A    between atoms: _622  and  _623
REMARK  252  A    between atoms: _629  and  _631
REMARK  253  A    between atoms: _631  and  _632
REMARK  254  A    between atoms: _635  and  _637
REMARK  255  A    between atoms: _637  and  _638
REMARK  256  A    between atoms: _637  and  _640
REMARK  257  A    between atoms: _640  and  _641
REMARK  258  A    between atoms: _644  and  _646
REMARK  259  A    between atoms: _646  and  _647
REMARK  260  A    between atoms: _646  and  _649
REMARK  261  A    between atoms: _649  and  _650
REMARK  262  A    between atoms: _652  and  _654
REMARK  263  A    between atoms: _654  and  _655
REMARK  264  A    between atoms: _654  and  _657
REMARK  265  A    between atoms: _657  and  _658
REMARK  266  A    between atoms: _658  and  _659
REMARK  267  A    between atoms: _664  and  _666
REMARK  268  A    between atoms: _666  and  _667
REMARK  269  A    between atoms: _666  and  _669
REMARK  270  A    between atoms: _669  and  _670
REMARK  271  A    between atoms: _672  and  _674
REMARK  272  A    between atoms: _674  and  _675
REMARK  273  A    between atoms: _674  and  _677
REMARK  274  A    between atoms: _677  and  _678
REMARK  275  A    between atoms: _680  and  _682
REMARK  276  A    between atoms: _682  and  _683
REMARK  277  A    between atoms: _682  and  _685
REMARK  278  A    between atoms: _685  and  _686
REMARK  279  A    between atoms: _689  and  _691
REMARK  280  A    between atoms: _691  and  _692
REMARK  281  A    between atoms: _691  and  _694
REMARK  282  A    between atoms: _697  and  _699
REMARK  283  A    between atoms: _699  and  _700
REMARK  284  A    between atoms: _702  and  _704
REMARK  285  A    between atoms: _704  and  _705
REMARK  286  A    between atoms: _708  and  _710
REMARK  287  A    between atoms: _710  and  _711
REMARK  288  A    between atoms: _710  and  _713
REMARK  289  A    between atoms: _716  and  _718
REMARK  290  A    between atoms: _718  and  _719
REMARK  291  A    between atoms: _718  and  _721
REMARK  292  A    between atoms: _721  and  _722
REMARK  293  A    between atoms: _722  and  _723
REMARK  294  A    between atoms: _725  and  _727
REMARK  295  A    between atoms: _727  and  _728
REMARK  296  A    between atoms: _727  and  _730
REMARK  297  A    between atoms: _730  and  _731
REMARK  298  A    between atoms: _731  and  _732
REMARK                            x       y       z     vdW  Elec       q    Type
REMARK                         _______ _______ _______ _____ _____    ______ ____
ROOT
ATOM      1  O   HOH     1      -7.125   6.087  31.481  0.00  0.00    +0.000 OA
ENDROOT
TORSDOF 0
REMARK  Name = ../refined-set-2016/2vkm/2vkm_pocket.pdb
REMARK  298 active torsions:
REMARK  status: ('A' for Active; 'I' for Inactive)
REMARK    1  A    between atoms: _1  and  _3
REMARK    2  A    between atoms: _3  and  _4
REMARK    3  A    between atoms: _6  and  _8
REMARK    4  A    between atoms: _8  and  _9
REMARK    5  A    between atoms: _8  and  _11
REMARK    6  A    between atoms: _11  and  _12
REMARK    7  A    between atoms: _12  and  _13
REMARK    8  A    between atoms: _13  and  _14
REMARK    9  A    between atoms: _14  and  _15
REMARK   10  A    between atoms: _19  and  _21
REMARK   11  A    between atoms: _21  and  _22
REMARK   12  A    between atoms: _21  and  _24
REMARK   13  A    between atoms: _24  and  _25
REMARK   14  A    between atoms: _27  and  _29
REMARK   15  A    between atoms: _29  and  _30
REMARK   16  A    between atoms: _32  and  _34
REMARK   17  A    between atoms: _34  and  _35
REMARK   18  A    between atoms: _34  and  _37
REMARK   19  A    between atoms: _37  and  _38
REMARK   20  A    between atoms: _38  and  _39
REMARK   21  A    between atoms: _44  and  _46
REMARK   22  A    between atoms: _46  and  _47
REMARK   23  A    between atoms: _49  and  _51
REMARK   24  A    between atoms: _51  and  _52
REMARK   25  A    between atoms: _51  and  _54
REMARK   26  A    between atoms: _54  and  _55
REMARK   27  A    between atoms: _60  and  _61
REMARK   28  A    between atoms: _63  and  _65
REMARK   29  A    between atoms: _65  and  _66
REMARK   30  A    between atoms: _65  and  _68
REMARK   31  A    between atoms: _68  and  _69
REMARK   32  A    between atoms: _74  and  _75
REMARK   33  A    between atoms: _77  and  _79
REMARK   34  A    between atoms: _79  and  _80
REMARK   35  A    between atoms: _79  and  _82
REMARK   36  A    between atoms: _82  and  _83
REMARK   37  A    between atoms: _86  and  _88
REMARK   38  A    between atoms: _88  and  _89
REMARK   39  A    between atoms: _88  and  _91
REMARK   40  A    between atoms: _94  and  _96
REMARK   41  A    between atoms: _96  and  _97
REMARK   42  A    between atoms: _96  and  _99
REMARK   43  A    between atoms: _99  and  _100
REMARK   44  A    between atoms: _103  and  _105
REMARK   45  A    between atoms: _105  and  _106
REMARK   46  A    between atoms: _105  and  _108
REMARK   47  A    between atoms: _108  and  _109
REMARK   48  A    between atoms: _112  and  _114
REMARK   49  A    between atoms: _114  and  _115
REMARK   50  A    between atoms: _117  and  _119
REMARK   51  A    between atoms: _119  and  _120
REMARK   52  A    between atoms: _119  and  _122
REMARK   53  A    between atoms: _122  and  _123
REMARK   54  A    between atoms: _125  and  _127
REMARK   55  A    between atoms: _127  and  _128
REMARK   56  A    between atoms: _127  and  _130
REMARK   57  A    between atoms: _130  and  _131
REMARK   58  A    between atoms: _133  and  _135
REMARK   59  A    between atoms: _135  and  _136
REMARK   60  A    between atoms: _135  and  _138
REMARK   61  A    between atoms: _138  and  _139
REMARK   62  A    between atoms: _144  and  _146
REMARK   63  A    between atoms: _146  and  _147
REMARK   64  A    between atoms: _146  and  _149
REMARK   65  A    between atoms: _153  and  _154
REMARK   66  A    between atoms: _159  and  _161
REMARK   67  A    between atoms: _161  and  _162
REMARK   68  A    between atoms: _161  and  _164
REMARK   69  A    between atoms: _164  and  _165
REMARK   70  A    between atoms: _170  and  _171
REMARK   71  A    between atoms: _173  and  _175
REMARK   72  A    between atoms: _175  and  _176
REMARK   73  A    between atoms: _175  and  _178
REMARK   74  A    between atoms: _178  and  _179
REMARK   75  A    between atoms: _182  and  _184
REMARK   76  A    between atoms: _184  and  _185
REMARK   77  A    between atoms: _184  and  _187
REMARK   78  A    between atoms: _187  and  _188
REMARK   79  A    between atoms: _188  and  _189
REMARK   80  A    between atoms: _194  and  _196
REMARK   81  A    between atoms: _196  and  _197
REMARK   82  A    between atoms: _199  and  _201
REMARK   83  A    between atoms: _201  and  _202
REMARK   84  A    between atoms: _201  and  _204
REMARK   85  A    between atoms: _204  and  _205
REMARK   86  A    between atoms: _205  and  _206
REMARK   87  A    between atoms: _206  and  _207
REMARK   88  A    between atoms: _207  and  _208
REMARK   89  A    between atoms: _212  and  _214
REMARK   90  A    between atoms: _214  and  _215
REMARK   91  A    between atoms: _214  and  _217
REMARK   92  A    between atoms: _217  and  _218
REMARK   93  A    between atoms: _228  and  _230
REMARK   94  A    between atoms: _230  and  _231
REMARK   95  A    between atoms: _230  and  _233
REMARK   96  A    between atoms: _233  and  _234
REMARK   97  A    between atoms: _237  and  _239
REMARK   98  A    between atoms: _239  and  _240
REMARK   99  A    between atoms: _239  and  _242
REMARK  100  A    between atoms: _242  and  _243
REMARK  101  A    between atoms: _243  and  _244
REMARK  102  A    between atoms: _244  and  _245
REMARK  103  A    between atoms: _245  and  _246
REMARK  104  A    between atoms: _250  and  _252
REMARK  105  A    between atoms: _252  and  _253
REMARK  106  A    between atoms: _252  and  _255
REMARK  107  A    between atoms: _255  and  _256
REMARK  108  A    between atoms: _262  and  _264
REMARK  109  A    between atoms: _264  and  _265
REMARK  110  A    between atoms: _264  and  _267
REMARK  111  A    between atoms: _267  and  _268
REMARK  112  A    between atoms: _274  and  _276
REMARK  113  A    between atoms: _276  and  _277
REMARK  114  A    between atoms: _276  and  _279
REMARK  115  A    between atoms: _279  and  _280
REMARK  116  A    between atoms: _283  and  _285
REMARK  117  A    between atoms: _285  and  _286
REMARK  118  A    between atoms: _285  and  _288
REMARK  119  A    between atoms: _288  and  _289
REMARK  120  A    between atoms: _291  and  _293
REMARK  121  A    between atoms: _293  and  _294
REMARK  122  A    between atoms: _293  and  _296
REMARK  123  A    between atoms: _296  and  _297
REMARK  124  A    between atoms: _307  and  _309
REMARK  125  A    between atoms: _309  and  _310
REMARK  126  A    between atoms: _312  and  _314
REMARK  127  A    between atoms: _314  and  _315
REMARK  128  A    between atoms: _314  and  _317
REMARK  129  A    between atoms: _317  and  _318
REMARK  130  A    between atoms: _321  and  _323
REMARK  131  A    between atoms: _323  and  _324
REMARK  132  A    between atoms: _323  and  _326
REMARK  133  A    between atoms: _326  and  _327
REMARK  134  A    between atoms: _330  and  _332
REMARK  135  A    between atoms: _332  and  _333
REMARK  136  A    between atoms: _335  and  _337
REMARK  137  A    between atoms: _337  and  _338
REMARK  138  A    between atoms: _337  and  _340
REMARK  139  A    between atoms: _340  and  _341
REMARK  140  A    between atoms: _344  and  _346
REMARK  141  A    between atoms: _346  and  _347
REMARK  142  A    between atoms: _350  and  _352
REMARK  143  A    between atoms: _352  and  _353
REMARK  144  A    between atoms: _352  and  _355
REMARK  145  A    between atoms: _355  and  _356
REMARK  146  A    between atoms: _361  and  _362
REMARK  147  A    between atoms: _364  and  _366
REMARK  148  A    between atoms: _366  and  _367
REMARK  149  A    between atoms: _370  and  _372
REMARK  150  A    between atoms: _372  and  _373
REMARK  151  A    between atoms: _372  and  _375
REMARK  152  A    between atoms: _375  and  _376
REMARK  153  A    between atoms: _376  and  _377
REMARK  154  A    between atoms: _380  and  _382
REMARK  155  A    between atoms: _382  and  _383
REMARK  156  A    between atoms: _382  and  _385
REMARK  157  A    between atoms: _385  and  _386
REMARK  158  A    between atoms: _389  and  _391
REMARK  159  A    between atoms: _391  and  _392
REMARK  160  A    between atoms: _395  and  _397
REMARK  161  A    between atoms: _397  and  _398
REMARK  162  A    between atoms: _397  and  _400
REMARK  163  A    between atoms: _400  and  _401
REMARK  164  A    between atoms: _401  and  _402
REMARK  165  A    between atoms: _402  and  _403
REMARK  166  A    between atoms: _412  and  _414
REMARK  167  A    between atoms: _414  and  _415
REMARK  168  A    between atoms: _414  and  _417
REMARK  169  A    between atoms: _417  and  _418
REMARK  170  A    between atoms: _421  and  _423
REMARK  171  A    between atoms: _423  and  _424
REMARK  172  A    between atoms: _426  and  _428
REMARK  173  A    between atoms: _428  and  _429
REMARK  174  A    between atoms: _428  and  _431
REMARK  175  A    between atoms: _431  and  _432
REMARK  176  A    between atoms: _442  and  _444
REMARK  177  A    between atoms: _444  and  _445
REMARK  178  A    between atoms: _444  and  _447
REMARK  179  A    between atoms: _447  and  _448
REMARK  180  A    between atoms: _453  and  _454
REMARK  181  A    between atoms: _456  and  _458
REMARK  182  A    between atoms: _458  and  _459
REMARK  183  A    between atoms: _458  and  _461
REMARK  184  A    between atoms: _461  and  _462
REMARK  185  A    between atoms: _467  and  _468
REMARK  186  A    between atoms: _470  and  _472
REMARK  187  A    between atoms: _472  and  _473
REMARK  188  A    between atoms: _472  and  _475
REMARK  189  A    between atoms: _475  and  _476
REMARK  190  A    between atoms: _476  and  _477
REMARK  191  A    between atoms: _477  and  _478
REMARK  192  A    between atoms: _478  and  _479
REMARK  193  A    between atoms: _483  and  _485
REMARK  194  A    between atoms: _485  and  _486
REMARK  195  A    between atoms: _485  and  _488
REMARK  196  A    between atoms: _488  and  _489
REMARK  197  A    between atoms: _492  and  _494
REMARK  198  A    between atoms: _494  and  _495
REMARK  199  A    between atoms: _494  and  _497
REMARK  200  A    between atoms: _500  and  _502
REMARK  201  A    between atoms: _502  and  _503
REMARK  202  A    between atoms: _502  and  _505
REMARK  203  A    between atoms: _505  and  _506
REMARK  204  A    between atoms: _509  and  _511
REMARK  205  A    between atoms: _511  and  _512
REMARK  206  A    between atoms: _511  and  _514
REMARK  207  A    between atoms: _514  and  _515
REMARK  208  A    between atoms: _517  and  _519
REMARK  209  A    between atoms: _519  and  _520
REMARK  210  A    between atoms: _522  and  _524
REMARK  211  A    between atoms: _524  and  _525
REMARK  212  A    between atoms: _524  and  _527
REMARK  213  A    between atoms: _527  and  _528
REMARK  214  A    between atoms: _531  and  _533
REMARK  215  A    between atoms: _533  and  _534
REMARK  216  A    between atoms: _533  and  _536
REMARK  217  A    between atoms: _536  and  _537
REMARK  218  A    between atoms: _540  and  _542
REMARK  219  A    between atoms: _542  and  _543
REMARK  220  A    between atoms: _542  and  _545
REMARK  221  A    between atoms: _545  and  _546
REMARK  222  A    between atoms: _551  and  _553
REMARK  223  A    between atoms: _553  and  _554
REMARK  224  A    between atoms: _553  and  _556
REMARK  225  A    between atoms: _556  and  _557
REMARK  226  A    between atoms: _560  and  _562
REMARK  227  A    between atoms: _562  and  _563
REMARK  228  A    between atoms: _562  and  _565
REMARK  229  A    between atoms: _565  and  _566
REMARK  230  A    between atoms: _566  and  _567
REMARK  231  A    between atoms: _567  and  _568
REMARK  232  A    between atoms: _577  and  _579
REMARK  233  A    between atoms: _579  and  _580
REMARK  234  A    between atoms: _579  and  _582
REMARK  235  A    between atoms: _582  and  _583
REMARK  236  A    between atoms: _586  and  _588
REMARK  237  A    between atoms: _588  and  _589
REMARK  238  A    between atoms: _588  and  _591
REMARK  239  A    between atoms: _591  and  _592
REMARK  240  A    between atoms: _595  and  _597
REMARK  241  A    between atoms: _597  and  _598
REMARK  242  A    between atoms: _600  and  _602
REMARK  243  A    between atoms: _602  and  _603
REMARK  244  A    between atoms: _602  and  _605
REMARK  245  A    between atoms: _605  and  _606
REMARK  246  A    between atoms: _606  and  _607
REMARK  247  A    between atoms: _607  and  _608
REMARK  248  A    between atoms: _617  and  _619
REMARK  249  A    between atoms: _619  and  _620
REMARK  250  A    between atoms: _619  and  _622
REMARK  251  A    between atoms: _622  and  _623
REMARK  252  A    between atoms: _629  and  _631
REMARK  253  A    between atoms: _631  and  _632
REMARK  254  A    between atoms: _635  and  _637
REMARK  255  A    between atoms: _637  and  _638
REMARK  256  A    between atoms: _637  and  _640
REMARK  257  A    between atoms: _640  and  _641
REMARK  258  A    between atoms: _644  and  _646
REMARK  259  A    between atoms: _646  and  _647
REMARK  260  A    between atoms: _646  and  _649
REMARK  261  A    between atoms: _649  and  _650
REMARK  262  A    between atoms: _652  and  _654
REMARK  263  A    between atoms: _654  and  _655
REMARK  264  A    between atoms: _654  and  _657
REMARK  265  A    between atoms: _657  and  _658
REMARK  266  A    between atoms: _658  and  _659
REMARK  267  A    between atoms: _664  and  _666
REMARK  268  A    between atoms: _666  and  _667
REMARK  269  A    between atoms: _666  and  _669
REMARK  270  A    between atoms: _669  and  _670
REMARK  271  A    between atoms: _672  and  _674
REMARK  272  A    between atoms: _674  and  _675
REMARK  273  A    between atoms: _674  and  _677
REMARK  274  A    between atoms: _677  and  _678
REMARK  275  A    between atoms: _680  and  _682
REMARK  276  A    between atoms: _682  and  _683
REMARK  277  A    between atoms: _682  and  _685
REMARK  278  A    between atoms: _685  and  _686
REMARK  279  A    between atoms: _689  and  _691
REMARK  280  A    between atoms: _691  and  _692
REMARK  281  A    between atoms: _691  and  _694
REMARK  282  A    between atoms: _697  and  _699
REMARK  283  A    between atoms: _699  and  _700
REMARK  284  A    between atoms: _702  and  _704
REMARK  285  A    between atoms: _704  and  _705
REMARK  286  A    between atoms: _708  and  _710
REMARK  287  A    between atoms: _710  and  _711
REMARK  288  A    between atoms: _710  and  _713
REMARK  289  A    between atoms: _716  and  _718
REMARK  290  A    between atoms: _718  and  _719
REMARK  291  A    between atoms: _718  and  _721
REMARK  292  A    between atoms: _721  and  _722
REMARK  293  A    between atoms: _722  and  _723
REMARK  294  A    between atoms: _725  and  _727
REMARK  295  A    between atoms: _727  and  _728
REMARK  296  A    between atoms: _727  and  _730
REMARK  297  A    between atoms: _730  and  _731
REMARK  298  A    between atoms: _731  and  _732
REMARK                            x       y       z     vdW  Elec       q    Type
REMARK                         _______ _______ _______ _____ _____    ______ ____
ROOT
ATOM      1  O   HOH     1      -7.502   3.408  30.165  0.00  0.00    +0.000 OA
ENDROOT
TORSDOF 0
REMARK  Name = ../refined-set-2016/2vkm/2vkm_pocket.pdb
REMARK  298 active torsions:
REMARK  status: ('A' for Active; 'I' for Inactive)
REMARK    1  A    between atoms: _1  and  _3
REMARK    2  A    between atoms: _3  and  _4
REMARK    3  A    between atoms: _6  and  _8
REMARK    4  A    between atoms: _8  and  _9
REMARK    5  A    between atoms: _8  and  _11
REMARK    6  A    between atoms: _11  and  _12
REMARK    7  A    between atoms: _12  and  _13
REMARK    8  A    between atoms: _13  and  _14
REMARK    9  A    between atoms: _14  and  _15
REMARK   10  A    between atoms: _19  and  _21
REMARK   11  A    between atoms: _21  and  _22
REMARK   12  A    between atoms: _21  and  _24
REMARK   13  A    between atoms: _24  and  _25
REMARK   14  A    between atoms: _27  and  _29
REMARK   15  A    between atoms: _29  and  _30
REMARK   16  A    between atoms: _32  and  _34
REMARK   17  A    between atoms: _34  and  _35
REMARK   18  A    between atoms: _34  and  _37
REMARK   19  A    between atoms: _37  and  _38
REMARK   20  A    between atoms: _38  and  _39
REMARK   21  A    between atoms: _44  and  _46
REMARK   22  A    between atoms: _46  and  _47
REMARK   23  A    between atoms: _49  and  _51
REMARK   24  A    between atoms: _51  and  _52
REMARK   25  A    between atoms: _51  and  _54
REMARK   26  A    between atoms: _54  and  _55
REMARK   27  A    between atoms: _60  and  _61
REMARK   28  A    between atoms: _63  and  _65
REMARK   29  A    between atoms: _65  and  _66
REMARK   30  A    between atoms: _65  and  _68
REMARK   31  A    between atoms: _68  and  _69
REMARK   32  A    between atoms: _74  and  _75
REMARK   33  A    between atoms: _77  and  _79
REMARK   34  A    between atoms: _79  and  _80
REMARK   35  A    between atoms: _79  and  _82
REMARK   36  A    between atoms: _82  and  _83
REMARK   37  A    between atoms: _86  and  _88
REMARK   38  A    between atoms: _88  and  _89
REMARK   39  A    between atoms: _88  and  _91
REMARK   40  A    between atoms: _94  and  _96
REMARK   41  A    between atoms: _96  and  _97
REMARK   42  A    between atoms: _96  and  _99
REMARK   43  A    between atoms: _99  and  _100
REMARK   44  A    between atoms: _103  and  _105
REMARK   45  A    between atoms: _105  and  _106
REMARK   46  A    between atoms: _105  and  _108
REMARK   47  A    between atoms: _108  and  _109
REMARK   48  A    between atoms: _112  and  _114
REMARK   49  A    between atoms: _114  and  _115
REMARK   50  A    between atoms: _117  and  _119
REMARK   51  A    between atoms: _119  and  _120
REMARK   52  A    between atoms: _119  and  _122
REMARK   53  A    between atoms: _122  and  _123
REMARK   54  A    between atoms: _125  and  _127
REMARK   55  A    between atoms: _127  and  _128
REMARK   56  A    between atoms: _127  and  _130
REMARK   57  A    between atoms: _130  and  _131
REMARK   58  A    between atoms: _133  and  _135
REMARK   59  A    between atoms: _135  and  _136
REMARK   60  A    between atoms: _135  and  _138
REMARK   61  A    between atoms: _138  and  _139
REMARK   62  A    between atoms: _144  and  _146
REMARK   63  A    between atoms: _146  and  _147
REMARK   64  A    between atoms: _146  and  _149
REMARK   65  A    between atoms: _153  and  _154
REMARK   66  A    between atoms: _159  and  _161
REMARK   67  A    between atoms: _161  and  _162
REMARK   68  A    between atoms: _161  and  _164
REMARK   69  A    between atoms: _164  and  _165
REMARK   70  A    between atoms: _170  and  _171
REMARK   71  A    between atoms: _173  and  _175
REMARK   72  A    between atoms: _175  and  _176
REMARK   73  A    between atoms: _175  and  _178
REMARK   74  A    between atoms: _178  and  _179
REMARK   75  A    between atoms: _182  and  _184
REMARK   76  A    between atoms: _184  and  _185
REMARK   77  A    between atoms: _184  and  _187
REMARK   78  A    between atoms: _187  and  _188
REMARK   79  A    between atoms: _188  and  _189
REMARK   80  A    between atoms: _194  and  _196
REMARK   81  A    between atoms: _196  and  _197
REMARK   82  A    between atoms: _199  and  _201
REMARK   83  A    between atoms: _201  and  _202
REMARK   84  A    between atoms: _201  and  _204
REMARK   85  A    between atoms: _204  and  _205
REMARK   86  A    between atoms: _205  and  _206
REMARK   87  A    between atoms: _206  and  _207
REMARK   88  A    between atoms: _207  and  _208
REMARK   89  A    between atoms: _212  and  _214
REMARK   90  A    between atoms: _214  and  _215
REMARK   91  A    between atoms: _214  and  _217
REMARK   92  A    between atoms: _217  and  _218
REMARK   93  A    between atoms: _228  and  _230
REMARK   94  A    between atoms: _230  and  _231
REMARK   95  A    between atoms: _230  and  _233
REMARK   96  A    between atoms: _233  and  _234
REMARK   97  A    between atoms: _237  and  _239
REMARK   98  A    between atoms: _239  and  _240
REMARK   99  A    between atoms: _239  and  _242
REMARK  100  A    between atoms: _242  and  _243
REMARK  101  A    between atoms: _243  and  _244
REMARK  102  A    between atoms: _244  and  _245
REMARK  103  A    between atoms: _245  and  _246
REMARK  104  A    between atoms: _250  and  _252
REMARK  105  A    between atoms: _252  and  _253
REMARK  106  A    between atoms: _252  and  _255
REMARK  107  A    between atoms: _255  and  _256
REMARK  108  A    between atoms: _262  and  _264
REMARK  109  A    between atoms: _264  and  _265
REMARK  110  A    between atoms: _264  and  _267
REMARK  111  A    between atoms: _267  and  _268
REMARK  112  A    between atoms: _274  and  _276
REMARK  113  A    between atoms: _276  and  _277
REMARK  114  A    between atoms: _276  and  _279
REMARK  115  A    between atoms: _279  and  _280
REMARK  116  A    between atoms: _283  and  _285
REMARK  117  A    between atoms: _285  and  _286
REMARK  118  A    between atoms: _285  and  _288
REMARK  119  A    between atoms: _288  and  _289
REMARK  120  A    between atoms: _291  and  _293
REMARK  121  A    between atoms: _293  and  _294
REMARK  122  A    between atoms: _293  and  _296
REMARK  123  A    between atoms: _296  and  _297
REMARK  124  A    between atoms: _307  and  _309
REMARK  125  A    between atoms: _309  and  _310
REMARK  126  A    between atoms: _312  and  _314
REMARK  127  A    between atoms: _314  and  _315
REMARK  128  A    between atoms: _314  and  _317
REMARK  129  A    between atoms: _317  and  _318
REMARK  130  A    between atoms: _321  and  _323
REMARK  131  A    between atoms: _323  and  _324
REMARK  132  A    between atoms: _323  and  _326
REMARK  133  A    between atoms: _326  and  _327
REMARK  134  A    between atoms: _330  and  _332
REMARK  135  A    between atoms: _332  and  _333
REMARK  136  A    between atoms: _335  and  _337
REMARK  137  A    between atoms: _337  and  _338
REMARK  138  A    between atoms: _337  and  _340
REMARK  139  A    between atoms: _340  and  _341
REMARK  140  A    between atoms: _344  and  _346
REMARK  141  A    between atoms: _346  and  _347
REMARK  142  A    between atoms: _350  and  _352
REMARK  143  A    between atoms: _352  and  _353
REMARK  144  A    between atoms: _352  and  _355
REMARK  145  A    between atoms: _355  and  _356
REMARK  146  A    between atoms: _361  and  _362
REMARK  147  A    between atoms: _364  and  _366
REMARK  148  A    between atoms: _366  and  _367
REMARK  149  A    between atoms: _370  and  _372
REMARK  150  A    between atoms: _372  and  _373
REMARK  151  A    between atoms: _372  and  _375
REMARK  152  A    between atoms: _375  and  _376
REMARK  153  A    between atoms: _376  and  _377
REMARK  154  A    between atoms: _380  and  _382
REMARK  155  A    between atoms: _382  and  _383
REMARK  156  A    between atoms: _382  and  _385
REMARK  157  A    between atoms: _385  and  _386
REMARK  158  A    between atoms: _389  and  _391
REMARK  159  A    between atoms: _391  and  _392
REMARK  160  A    between atoms: _395  and  _397
REMARK  161  A    between atoms: _397  and  _398
REMARK  162  A    between atoms: _397  and  _400
REMARK  163  A    between atoms: _400  and  _401
REMARK  164  A    between atoms: _401  and  _402
REMARK  165  A    between atoms: _402  and  _403
REMARK  166  A    between atoms: _412  and  _414
REMARK  167  A    between atoms: _414  and  _415
REMARK  168  A    between atoms: _414  and  _417
REMARK  169  A    between atoms: _417  and  _418
REMARK  170  A    between atoms: _421  and  _423
REMARK  171  A    between atoms: _423  and  _424
REMARK  172  A    between atoms: _426  and  _428
REMARK  173  A    between atoms: _428  and  _429
REMARK  174  A    between atoms: _428  and  _431
REMARK  175  A    between atoms: _431  and  _432
REMARK  176  A    between atoms: _442  and  _444
REMARK  177  A    between atoms: _444  and  _445
REMARK  178  A    between atoms: _444  and  _447
REMARK  179  A    between atoms: _447  and  _448
REMARK  180  A    between atoms: _453  and  _454
REMARK  181  A    between atoms: _456  and  _458
REMARK  182  A    between atoms: _458  and  _459
REMARK  183  A    between atoms: _458  and  _461
REMARK  184  A    between atoms: _461  and  _462
REMARK  185  A    between atoms: _467  and  _468
REMARK  186  A    between atoms: _470  and  _472
REMARK  187  A    between atoms: _472  and  _473
REMARK  188  A    between atoms: _472  and  _475
REMARK  189  A    between atoms: _475  and  _476
REMARK  190  A    between atoms: _476  and  _477
REMARK  191  A    between atoms: _477  and  _478
REMARK  192  A    between atoms: _478  and  _479
REMARK  193  A    between atoms: _483  and  _485
REMARK  194  A    between atoms: _485  and  _486
REMARK  195  A    between atoms: _485  and  _488
REMARK  196  A    between atoms: _488  and  _489
REMARK  197  A    between atoms: _492  and  _494
REMARK  198  A    between atoms: _494  and  _495
REMARK  199  A    between atoms: _494  and  _497
REMARK  200  A    between atoms: _500  and  _502
REMARK  201  A    between atoms: _502  and  _503
REMARK  202  A    between atoms: _502  and  _505
REMARK  203  A    between atoms: _505  and  _506
REMARK  204  A    between atoms: _509  and  _511
REMARK  205  A    between atoms: _511  and  _512
REMARK  206  A    between atoms: _511  and  _514
REMARK  207  A    between atoms: _514  and  _515
REMARK  208  A    between atoms: _517  and  _519
REMARK  209  A    between atoms: _519  and  _520
REMARK  210  A    between atoms: _522  and  _524
REMARK  211  A    between atoms: _524  and  _525
REMARK  212  A    between atoms: _524  and  _527
REMARK  213  A    between atoms: _527  and  _528
REMARK  214  A    between atoms: _531  and  _533
REMARK  215  A    between atoms: _533  and  _534
REMARK  216  A    between atoms: _533  and  _536
REMARK  217  A    between atoms: _536  and  _537
REMARK  218  A    between atoms: _540  and  _542
REMARK  219  A    between atoms: _542  and  _543
REMARK  220  A    between atoms: _542  and  _545
REMARK  221  A    between atoms: _545  and  _546
REMARK  222  A    between atoms: _551  and  _553
REMARK  223  A    between atoms: _553  and  _554
REMARK  224  A    between atoms: _553  and  _556
REMARK  225  A    between atoms: _556  and  _557
REMARK  226  A    between atoms: _560  and  _562
REMARK  227  A    between atoms: _562  and  _563
REMARK  228  A    between atoms: _562  and  _565
REMARK  229  A    between atoms: _565  and  _566
REMARK  230  A    between atoms: _566  and  _567
REMARK  231  A    between atoms: _567  and  _568
REMARK  232  A    between atoms: _577  and  _579
REMARK  233  A    between atoms: _579  and  _580
REMARK  234  A    between atoms: _579  and  _582
REMARK  235  A    between atoms: _582  and  _583
REMARK  236  A    between atoms: _586  and  _588
REMARK  237  A    between atoms: _588  and  _589
REMARK  238  A    between atoms: _588  and  _591
REMARK  239  A    between atoms: _591  and  _592
REMARK  240  A    between atoms: _595  and  _597
REMARK  241  A    between atoms: _597  and  _598
REMARK  242  A    between atoms: _600  and  _602
REMARK  243  A    between atoms: _602  and  _603
REMARK  244  A    between atoms: _602  and  _605
REMARK  245  A    between atoms: _605  and  _606
REMARK  246  A    between atoms: _606  and  _607
REMARK  247  A    between atoms: _607  and  _608
REMARK  248  A    between atoms: _617  and  _619
REMARK  249  A    between atoms: _619  and  _620
REMARK  250  A    between atoms: _619  and  _622
REMARK  251  A    between atoms: _622  and  _623
REMARK  252  A    between atoms: _629  and  _631
REMARK  253  A    between atoms: _631  and  _632
REMARK  254  A    between atoms: _635  and  _637
REMARK  255  A    between atoms: _637  and  _638
REMARK  256  A    between atoms: _637  and  _640
REMARK  257  A    between atoms: _640  and  _641
REMARK  258  A    between atoms: _644  and  _646
REMARK  259  A    between atoms: _646  and  _647
REMARK  260  A    between atoms: _646  and  _649
REMARK  261  A    between atoms: _649  and  _650
REMARK  262  A    between atoms: _652  and  _654
REMARK  263  A    between atoms: _654  and  _655
REMARK  264  A    between atoms: _654  and  _657
REMARK  265  A    between atoms: _657  and  _658
REMARK  266  A    between atoms: _658  and  _659
REMARK  267  A    between atoms: _664  and  _666
REMARK  268  A    between atoms: _666  and  _667
REMARK  269  A    between atoms: _666  and  _669
REMARK  270  A    between atoms: _669  and  _670
REMARK  271  A    between atoms: _672  and  _674
REMARK  272  A    between atoms: _674  and  _675
REMARK  273  A    between atoms: _674  and  _677
REMARK  274  A    between atoms: _677  and  _678
REMARK  275  A    between atoms: _680  and  _682
REMARK  276  A    between atoms: _682  and  _683
REMARK  277  A    between atoms: _682  and  _685
REMARK  278  A    between atoms: _685  and  _686
REMARK  279  A    between atoms: _689  and  _691
REMARK  280  A    between atoms: _691  and  _692
REMARK  281  A    between atoms: _691  and  _694
REMARK  282  A    between atoms: _697  and  _699
REMARK  283  A    between atoms: _699  and  _700
REMARK  284  A    between atoms: _702  and  _704
REMARK  285  A    between atoms: _704  and  _705
REMARK  286  A    between atoms: _708  and  _710
REMARK  287  A    between atoms: _710  and  _711
REMARK  288  A    between atoms: _710  and  _713
REMARK  289  A    between atoms: _716  and  _718
REMARK  290  A    between atoms: _718  and  _719
REMARK  291  A    between atoms: _718  and  _721
REMARK  292  A    between atoms: _721  and  _722
REMARK  293  A    between atoms: _722  and  _723
REMARK  294  A    between atoms: _725  and  _727
REMARK  295  A    between atoms: _727  and  _728
REMARK  296  A    between atoms: _727  and  _730
REMARK  297  A    between atoms: _730  and  _731
REMARK  298  A    between atoms: _731  and  _732
REMARK                            x       y       z     vdW  Elec       q    Type
REMARK                         _______ _______ _______ _____ _____    ______ ____
ROOT
ATOM      1  O   HOH     1      -6.489   3.009  25.444  0.00  0.00    +0.000 OA
ENDROOT
TORSDOF 0
REMARK  Name = ../refined-set-2016/2vkm/2vkm_pocket.pdb
REMARK  298 active torsions:
REMARK  status: ('A' for Active; 'I' for Inactive)
REMARK    1  A    between atoms: _1  and  _3
REMARK    2  A    between atoms: _3  and  _4
REMARK    3  A    between atoms: _6  and  _8
REMARK    4  A    between atoms: _8  and  _9
REMARK    5  A    between atoms: _8  and  _11
REMARK    6  A    between atoms: _11  and  _12
REMARK    7  A    between atoms: _12  and  _13
REMARK    8  A    between atoms: _13  and  _14
REMARK    9  A    between atoms: _14  and  _15
REMARK   10  A    between atoms: _19  and  _21
REMARK   11  A    between atoms: _21  and  _22
REMARK   12  A    between atoms: _21  and  _24
REMARK   13  A    between atoms: _24  and  _25
REMARK   14  A    between atoms: _27  and  _29
REMARK   15  A    between atoms: _29  and  _30
REMARK   16  A    between atoms: _32  and  _34
REMARK   17  A    between atoms: _34  and  _35
REMARK   18  A    between atoms: _34  and  _37
REMARK   19  A    between atoms: _37  and  _38
REMARK   20  A    between atoms: _38  and  _39
REMARK   21  A    between atoms: _44  and  _46
REMARK   22  A    between atoms: _46  and  _47
REMARK   23  A    between atoms: _49  and  _51
REMARK   24  A    between atoms: _51  and  _52
REMARK   25  A    between atoms: _51  and  _54
REMARK   26  A    between atoms: _54  and  _55
REMARK   27  A    between atoms: _60  and  _61
REMARK   28  A    between atoms: _63  and  _65
REMARK   29  A    between atoms: _65  and  _66
REMARK   30  A    between atoms: _65  and  _68
REMARK   31  A    between atoms: _68  and  _69
REMARK   32  A    between atoms: _74  and  _75
REMARK   33  A    between atoms: _77  and  _79
REMARK   34  A    between atoms: _79  and  _80
REMARK   35  A    between atoms: _79  and  _82
REMARK   36  A    between atoms: _82  and  _83
REMARK   37  A    between atoms: _86  and  _88
REMARK   38  A    between atoms: _88  and  _89
REMARK   39  A    between atoms: _88  and  _91
REMARK   40  A    between atoms: _94  and  _96
REMARK   41  A    between atoms: _96  and  _97
REMARK   42  A    between atoms: _96  and  _99
REMARK   43  A    between atoms: _99  and  _100
REMARK   44  A    between atoms: _103  and  _105
REMARK   45  A    between atoms: _105  and  _106
REMARK   46  A    between atoms: _105  and  _108
REMARK   47  A    between atoms: _108  and  _109
REMARK   48  A    between atoms: _112  and  _114
REMARK   49  A    between atoms: _114  and  _115
REMARK   50  A    between atoms: _117  and  _119
REMARK   51  A    between atoms: _119  and  _120
REMARK   52  A    between atoms: _119  and  _122
REMARK   53  A    between atoms: _122  and  _123
REMARK   54  A    between atoms: _125  and  _127
REMARK   55  A    between atoms: _127  and  _128
REMARK   56  A    between atoms: _127  and  _130
REMARK   57  A    between atoms: _130  and  _131
REMARK   58  A    between atoms: _133  and  _135
REMARK   59  A    between atoms: _135  and  _136
REMARK   60  A    between atoms: _135  and  _138
REMARK   61  A    between atoms: _138  and  _139
REMARK   62  A    between atoms: _144  and  _146
REMARK   63  A    between atoms: _146  and  _147
REMARK   64  A    between atoms: _146  and  _149
REMARK   65  A    between atoms: _153  and  _154
REMARK   66  A    between atoms: _159  and  _161
REMARK   67  A    between atoms: _161  and  _162
REMARK   68  A    between atoms: _161  and  _164
REMARK   69  A    between atoms: _164  and  _165
REMARK   70  A    between atoms: _170  and  _171
REMARK   71  A    between atoms: _173  and  _175
REMARK   72  A    between atoms: _175  and  _176
REMARK   73  A    between atoms: _175  and  _178
REMARK   74  A    between atoms: _178  and  _179
REMARK   75  A    between atoms: _182  and  _184
REMARK   76  A    between atoms: _184  and  _185
REMARK   77  A    between atoms: _184  and  _187
REMARK   78  A    between atoms: _187  and  _188
REMARK   79  A    between atoms: _188  and  _189
REMARK   80  A    between atoms: _194  and  _196
REMARK   81  A    between atoms: _196  and  _197
REMARK   82  A    between atoms: _199  and  _201
REMARK   83  A    between atoms: _201  and  _202
REMARK   84  A    between atoms: _201  and  _204
REMARK   85  A    between atoms: _204  and  _205
REMARK   86  A    between atoms: _205  and  _206
REMARK   87  A    between atoms: _206  and  _207
REMARK   88  A    between atoms: _207  and  _208
REMARK   89  A    between atoms: _212  and  _214
REMARK   90  A    between atoms: _214  and  _215
REMARK   91  A    between atoms: _214  and  _217
REMARK   92  A    between atoms: _217  and  _218
REMARK   93  A    between atoms: _228  and  _230
REMARK   94  A    between atoms: _230  and  _231
REMARK   95  A    between atoms: _230  and  _233
REMARK   96  A    between atoms: _233  and  _234
REMARK   97  A    between atoms: _237  and  _239
REMARK   98  A    between atoms: _239  and  _240
REMARK   99  A    between atoms: _239  and  _242
REMARK  100  A    between atoms: _242  and  _243
REMARK  101  A    between atoms: _243  and  _244
REMARK  102  A    between atoms: _244  and  _245
REMARK  103  A    between atoms: _245  and  _246
REMARK  104  A    between atoms: _250  and  _252
REMARK  105  A    between atoms: _252  and  _253
REMARK  106  A    between atoms: _252  and  _255
REMARK  107  A    between atoms: _255  and  _256
REMARK  108  A    between atoms: _262  and  _264
REMARK  109  A    between atoms: _264  and  _265
REMARK  110  A    between atoms: _264  and  _267
REMARK  111  A    between atoms: _267  and  _268
REMARK  112  A    between atoms: _274  and  _276
REMARK  113  A    between atoms: _276  and  _277
REMARK  114  A    between atoms: _276  and  _279
REMARK  115  A    between atoms: _279  and  _280
REMARK  116  A    between atoms: _283  and  _285
REMARK  117  A    between atoms: _285  and  _286
REMARK  118  A    between atoms: _285  and  _288
REMARK  119  A    between atoms: _288  and  _289
REMARK  120  A    between atoms: _291  and  _293
REMARK  121  A    between atoms: _293  and  _294
REMARK  122  A    between atoms: _293  and  _296
REMARK  123  A    between atoms: _296  and  _297
REMARK  124  A    between atoms: _307  and  _309
REMARK  125  A    between atoms: _309  and  _310
REMARK  126  A    between atoms: _312  and  _314
REMARK  127  A    between atoms: _314  and  _315
REMARK  128  A    between atoms: _314  and  _317
REMARK  129  A    between atoms: _317  and  _318
REMARK  130  A    between atoms: _321  and  _323
REMARK  131  A    between atoms: _323  and  _324
REMARK  132  A    between atoms: _323  and  _326
REMARK  133  A    between atoms: _326  and  _327
REMARK  134  A    between atoms: _330  and  _332
REMARK  135  A    between atoms: _332  and  _333
REMARK  136  A    between atoms: _335  and  _337
REMARK  137  A    between atoms: _337  and  _338
REMARK  138  A    between atoms: _337  and  _340
REMARK  139  A    between atoms: _340  and  _341
REMARK  140  A    between atoms: _344  and  _346
REMARK  141  A    between atoms: _346  and  _347
REMARK  142  A    between atoms: _350  and  _352
REMARK  143  A    between atoms: _352  and  _353
REMARK  144  A    between atoms: _352  and  _355
REMARK  145  A    between atoms: _355  and  _356
REMARK  146  A    between atoms: _361  and  _362
REMARK  147  A    between atoms: _364  and  _366
REMARK  148  A    between atoms: _366  and  _367
REMARK  149  A    between atoms: _370  and  _372
REMARK  150  A    between atoms: _372  and  _373
REMARK  151  A    between atoms: _372  and  _375
REMARK  152  A    between atoms: _375  and  _376
REMARK  153  A    between atoms: _376  and  _377
REMARK  154  A    between atoms: _380  and  _382
REMARK  155  A    between atoms: _382  and  _383
REMARK  156  A    between atoms: _382  and  _385
REMARK  157  A    between atoms: _385  and  _386
REMARK  158  A    between atoms: _389  and  _391
REMARK  159  A    between atoms: _391  and  _392
REMARK  160  A    between atoms: _395  and  _397
REMARK  161  A    between atoms: _397  and  _398
REMARK  162  A    between atoms: _397  and  _400
REMARK  163  A    between atoms: _400  and  _401
REMARK  164  A    between atoms: _401  and  _402
REMARK  165  A    between atoms: _402  and  _403
REMARK  166  A    between atoms: _412  and  _414
REMARK  167  A    between atoms: _414  and  _415
REMARK  168  A    between atoms: _414  and  _417
REMARK  169  A    between atoms: _417  and  _418
REMARK  170  A    between atoms: _421  and  _423
REMARK  171  A    between atoms: _423  and  _424
REMARK  172  A    between atoms: _426  and  _428
REMARK  173  A    between atoms: _428  and  _429
REMARK  174  A    between atoms: _428  and  _431
REMARK  175  A    between atoms: _431  and  _432
REMARK  176  A    between atoms: _442  and  _444
REMARK  177  A    between atoms: _444  and  _445
REMARK  178  A    between atoms: _444  and  _447
REMARK  179  A    between atoms: _447  and  _448
REMARK  180  A    between atoms: _453  and  _454
REMARK  181  A    between atoms: _456  and  _458
REMARK  182  A    between atoms: _458  and  _459
REMARK  183  A    between atoms: _458  and  _461
REMARK  184  A    between atoms: _461  and  _462
REMARK  185  A    between atoms: _467  and  _468
REMARK  186  A    between atoms: _470  and  _472
REMARK  187  A    between atoms: _472  and  _473
REMARK  188  A    between atoms: _472  and  _475
REMARK  189  A    between atoms: _475  and  _476
REMARK  190  A    between atoms: _476  and  _477
REMARK  191  A    between atoms: _477  and  _478
REMARK  192  A    between atoms: _478  and  _479
REMARK  193  A    between atoms: _483  and  _485
REMARK  194  A    between atoms: _485  and  _486
REMARK  195  A    between atoms: _485  and  _488
REMARK  196  A    between atoms: _488  and  _489
REMARK  197  A    between atoms: _492  and  _494
REMARK  198  A    between atoms: _494  and  _495
REMARK  199  A    between atoms: _494  and  _497
REMARK  200  A    between atoms: _500  and  _502
REMARK  201  A    between atoms: _502  and  _503
REMARK  202  A    between atoms: _502  and  _505
REMARK  203  A    between atoms: _505  and  _506
REMARK  204  A    between atoms: _509  and  _511
REMARK  205  A    between atoms: _511  and  _512
REMARK  206  A    between atoms: _511  and  _514
REMARK  207  A    between atoms: _514  and  _515
REMARK  208  A    between atoms: _517  and  _519
REMARK  209  A    between atoms: _519  and  _520
REMARK  210  A    between atoms: _522  and  _524
REMARK  211  A    between atoms: _524  and  _525
REMARK  212  A    between atoms: _524  and  _527
REMARK  213  A    between atoms: _527  and  _528
REMARK  214  A    between atoms: _531  and  _533
REMARK  215  A    between atoms: _533  and  _534
REMARK  216  A    between atoms: _533  and  _536
REMARK  217  A    between atoms: _536  and  _537
REMARK  218  A    between atoms: _540  and  _542
REMARK  219  A    between atoms: _542  and  _543
REMARK  220  A    between atoms: _542  and  _545
REMARK  221  A    between atoms: _545  and  _546
REMARK  222  A    between atoms: _551  and  _553
REMARK  223  A    between atoms: _553  and  _554
REMARK  224  A    between atoms: _553  and  _556
REMARK  225  A    between atoms: _556  and  _557
REMARK  226  A    between atoms: _560  and  _562
REMARK  227  A    between atoms: _562  and  _563
REMARK  228  A    between atoms: _562  and  _565
REMARK  229  A    between atoms: _565  and  _566
REMARK  230  A    between atoms: _566  and  _567
REMARK  231  A    between atoms: _567  and  _568
REMARK  232  A    between atoms: _577  and  _579
REMARK  233  A    between atoms: _579  and  _580
REMARK  234  A    between atoms: _579  and  _582
REMARK  235  A    between atoms: _582  and  _583
REMARK  236  A    between atoms: _586  and  _588
REMARK  237  A    between atoms: _588  and  _589
REMARK  238  A    between atoms: _588  and  _591
REMARK  239  A    between atoms: _591  and  _592
REMARK  240  A    between atoms: _595  and  _597
REMARK  241  A    between atoms: _597  and  _598
REMARK  242  A    between atoms: _600  and  _602
REMARK  243  A    between atoms: _602  and  _603
REMARK  244  A    between atoms: _602  and  _605
REMARK  245  A    between atoms: _605  and  _606
REMARK  246  A    between atoms: _606  and  _607
REMARK  247  A    between atoms: _607  and  _608
REMARK  248  A    between atoms: _617  and  _619
REMARK  249  A    between atoms: _619  and  _620
REMARK  250  A    between atoms: _619  and  _622
REMARK  251  A    between atoms: _622  and  _623
REMARK  252  A    between atoms: _629  and  _631
REMARK  253  A    between atoms: _631  and  _632
REMARK  254  A    between atoms: _635  and  _637
REMARK  255  A    between atoms: _637  and  _638
REMARK  256  A    between atoms: _637  and  _640
REMARK  257  A    between atoms: _640  and  _641
REMARK  258  A    between atoms: _644  and  _646
REMARK  259  A    between atoms: _646  and  _647
REMARK  260  A    between atoms: _646  and  _649
REMARK  261  A    between atoms: _649  and  _650
REMARK  262  A    between atoms: _652  and  _654
REMARK  263  A    between atoms: _654  and  _655
REMARK  264  A    between atoms: _654  and  _657
REMARK  265  A    between atoms: _657  and  _658
REMARK  266  A    between atoms: _658  and  _659
REMARK  267  A    between atoms: _664  and  _666
REMARK  268  A    between atoms: _666  and  _667
REMARK  269  A    between atoms: _666  and  _669
REMARK  270  A    between atoms: _669  and  _670
REMARK  271  A    between atoms: _672  and  _674
REMARK  272  A    between atoms: _674  and  _675
REMARK  273  A    between atoms: _674  and  _677
REMARK  274  A    between atoms: _677  and  _678
REMARK  275  A    between atoms: _680  and  _682
REMARK  276  A    between atoms: _682  and  _683
REMARK  277  A    between atoms: _682  and  _685
REMARK  278  A    between atoms: _685  and  _686
REMARK  279  A    between atoms: _689  and  _691
REMARK  280  A    between atoms: _691  and  _692
REMARK  281  A    between atoms: _691  and  _694
REMARK  282  A    between atoms: _697  and  _699
REMARK  283  A    between atoms: _699  and  _700
REMARK  284  A    between atoms: _702  and  _704
REMARK  285  A    between atoms: _704  and  _705
REMARK  286  A    between atoms: _708  and  _710
REMARK  287  A    between atoms: _710  and  _711
REMARK  288  A    between atoms: _710  and  _713
REMARK  289  A    between atoms: _716  and  _718
REMARK  290  A    between atoms: _718  and  _719
REMARK  291  A    between atoms: _718  and  _721
REMARK  292  A    between atoms: _721  and  _722
REMARK  293  A    between atoms: _722  and  _723
REMARK  294  A    between atoms: _725  and  _727
REMARK  295  A    between atoms: _727  and  _728
REMARK  296  A    between atoms: _727  and  _730
REMARK  297  A    between atoms: _730  and  _731
REMARK  298  A    between atoms: _731  and  _732
REMARK                            x       y       z     vdW  Elec       q    Type
REMARK                         _______ _______ _______ _____ _____    ______ ____
ROOT
ATOM      1  O   HOH     1      11.311  -2.232  34.969  0.00  0.00    +0.000 OA
ENDROOT
TORSDOF 0
