REMARK  Name = ../refined-set-2016/3ekp/3ekp_pocket.pdb
REMARK  229 active torsions:
REMARK  status: ('A' for Active; 'I' for Inactive)
REMARK    1  A    between atoms: _1  and  _3
REMARK    2  A    between atoms: _3  and  _4
REMARK    3  A    between atoms: _3  and  _6
REMARK    4  A    between atoms: _6  and  _7
REMARK    5  A    between atoms: _7  and  _8
REMARK    6  A    between atoms: _8  and  _9
REMARK    7  A    between atoms: _18  and  _20
REMARK    8  A    between atoms: _20  and  _21
REMARK    9  A    between atoms: _20  and  _23
REMARK   10  A    between atoms: _23  and  _24
REMARK   11  A    between atoms: _27  and  _29
REMARK   12  A    between atoms: _29  and  _30
REMARK   13  A    between atoms: _29  and  _32
REMARK   14  A    between atoms: _32  and  _33
REMARK   15  A    between atoms: _36  and  _38
REMARK   16  A    between atoms: _38  and  _39
REMARK   17  A    between atoms: _38  and  _41
REMARK   18  A    between atoms: _41  and  _42
REMARK   19  A    between atoms: _45  and  _47
REMARK   20  A    between atoms: _47  and  _48
REMARK   21  A    between atoms: _47  and  _50
REMARK   22  A    between atoms: _50  and  _51
REMARK   23  A    between atoms: _54  and  _56
REMARK   24  A    between atoms: _56  and  _57
REMARK   25  A    between atoms: _59  and  _61
REMARK   26  A    between atoms: _61  and  _62
REMARK   27  A    between atoms: _65  and  _67
REMARK   28  A    between atoms: _67  and  _68
REMARK   29  A    between atoms: _67  and  _70
REMARK   30  A    between atoms: _70  and  _71
REMARK   31  A    between atoms: _74  and  _76
REMARK   32  A    between atoms: _76  and  _77
REMARK   33  A    between atoms: _76  and  _79
REMARK   34  A    between atoms: _79  and  _80
REMARK   35  A    between atoms: _83  and  _85
REMARK   36  A    between atoms: _85  and  _86
REMARK   37  A    between atoms: _85  and  _88
REMARK   38  A    between atoms: _88  and  _89
REMARK   39  A    between atoms: _92  and  _94
REMARK   40  A    between atoms: _94  and  _95
REMARK   41  A    between atoms: _94  and  _97
REMARK   42  A    between atoms: _100  and  _102
REMARK   43  A    between atoms: _102  and  _103
REMARK   44  A    between atoms: _102  and  _105
REMARK   45  A    between atoms: _105  and  _106
REMARK   46  A    between atoms: _109  and  _111
REMARK   47  A    between atoms: _111  and  _112
REMARK   48  A    between atoms: _111  and  _114
REMARK   49  A    between atoms: _114  and  _115
REMARK   50  A    between atoms: _115  and  _116
REMARK   51  A    between atoms: _118  and  _120
REMARK   52  A    between atoms: _120  and  _121
REMARK   53  A    between atoms: _120  and  _123
REMARK   54  A    between atoms: _123  and  _124
REMARK   55  A    between atoms: _127  and  _129
REMARK   56  A    between atoms: _129  and  _130
REMARK   57  A    between atoms: _129  and  _132
REMARK   58  A    between atoms: _135  and  _137
REMARK   59  A    between atoms: _137  and  _138
REMARK   60  A    between atoms: _140  and  _142
REMARK   61  A    between atoms: _142  and  _143
REMARK   62  A    between atoms: _142  and  _145
REMARK   63  A    between atoms: _145  and  _146
REMARK   64  A    between atoms: _149  and  _151
REMARK   65  A    between atoms: _151  and  _152
REMARK   66  A    between atoms: _154  and  _156
REMARK   67  A    between atoms: _156  and  _157
REMARK   68  A    between atoms: _159  and  _161
REMARK   69  A    between atoms: _161  and  _162
REMARK   70  A    between atoms: _161  and  _164
REMARK   71  A    between atoms: _167  and  _169
REMARK   72  A    between atoms: _169  and  _170
REMARK   73  A    between atoms: _169  and  _172
REMARK   74  A    between atoms: _175  and  _177
REMARK   75  A    between atoms: _177  and  _178
REMARK   76  A    between atoms: _177  and  _180
REMARK   77  A    between atoms: _180  and  _181
REMARK   78  A    between atoms: _184  and  _186
REMARK   79  A    between atoms: _186  and  _187
REMARK   80  A    between atoms: _186  and  _189
REMARK   81  A    between atoms: _189  and  _190
REMARK   82  A    between atoms: _194  and  _195
REMARK   83  A    between atoms: _200  and  _202
REMARK   84  A    between atoms: _202  and  _203
REMARK   85  A    between atoms: _206  and  _208
REMARK   86  A    between atoms: _208  and  _209
REMARK   87  A    between atoms: _208  and  _211
REMARK   88  A    between atoms: _211  and  _212
REMARK   89  A    between atoms: _217  and  _219
REMARK   90  A    between atoms: _219  and  _220
REMARK   91  A    between atoms: _219  and  _222
REMARK   92  A    between atoms: _222  and  _223
REMARK   93  A    between atoms: _226  and  _228
REMARK   94  A    between atoms: _228  and  _229
REMARK   95  A    between atoms: _228  and  _231
REMARK   96  A    between atoms: _231  and  _232
REMARK   97  A    between atoms: _235  and  _237
REMARK   98  A    between atoms: _237  and  _238
REMARK   99  A    between atoms: _240  and  _242
REMARK  100  A    between atoms: _242  and  _243
REMARK  101  A    between atoms: _242  and  _245
REMARK  102  A    between atoms: _245  and  _246
REMARK  103  A    between atoms: _246  and  _247
REMARK  104  A    between atoms: _247  and  _248
REMARK  105  A    between atoms: _257  and  _259
REMARK  106  A    between atoms: _259  and  _260
REMARK  107  A    between atoms: _259  and  _262
REMARK  108  A    between atoms: _262  and  _263
REMARK  109  A    between atoms: _268  and  _270
REMARK  110  A    between atoms: _270  and  _271
REMARK  111  A    between atoms: _270  and  _273
REMARK  112  A    between atoms: _273  and  _274
REMARK  113  A    between atoms: _274  and  _275
REMARK  114  A    between atoms: _275  and  _276
REMARK  115  A    between atoms: _285  and  _287
REMARK  116  A    between atoms: _287  and  _288
REMARK  117  A    between atoms: _287  and  _290
REMARK  118  A    between atoms: _290  and  _291
REMARK  119  A    between atoms: _294  and  _296
REMARK  120  A    between atoms: _296  and  _297
REMARK  121  A    between atoms: _296  and  _299
REMARK  122  A    between atoms: _299  and  _300
REMARK  123  A    between atoms: _303  and  _305
REMARK  124  A    between atoms: _305  and  _306
REMARK  125  A    between atoms: _305  and  _308
REMARK  126  A    between atoms: _308  and  _309
REMARK  127  A    between atoms: _312  and  _314
REMARK  128  A    between atoms: _314  and  _315
REMARK  129  A    between atoms: _314  and  _317
REMARK  130  A    between atoms: _317  and  _318
REMARK  131  A    between atoms: _321  and  _323
REMARK  132  A    between atoms: _323  and  _324
REMARK  133  A    between atoms: _326  and  _328
REMARK  134  A    between atoms: _328  and  _329
REMARK  135  A    between atoms: _332  and  _334
REMARK  136  A    between atoms: _334  and  _335
REMARK  137  A    between atoms: _334  and  _337
REMARK  138  A    between atoms: _337  and  _338
REMARK  139  A    between atoms: _341  and  _343
REMARK  140  A    between atoms: _343  and  _344
REMARK  141  A    between atoms: _343  and  _346
REMARK  142  A    between atoms: _346  and  _347
REMARK  143  A    between atoms: _350  and  _352
REMARK  144  A    between atoms: _352  and  _353
REMARK  145  A    between atoms: _352  and  _355
REMARK  146  A    between atoms: _355  and  _356
REMARK  147  A    between atoms: _359  and  _361
REMARK  148  A    between atoms: _361  and  _362
REMARK  149  A    between atoms: _361  and  _364
REMARK  150  A    between atoms: _367  and  _369
REMARK  151  A    between atoms: _369  and  _370
REMARK  152  A    between atoms: _369  and  _372
REMARK  153  A    between atoms: _372  and  _373
REMARK  154  A    between atoms: _376  and  _378
REMARK  155  A    between atoms: _378  and  _379
REMARK  156  A    between atoms: _378  and  _381
REMARK  157  A    between atoms: _381  and  _382
REMARK  158  A    between atoms: _382  and  _383
REMARK  159  A    between atoms: _386  and  _388
REMARK  160  A    between atoms: _388  and  _389
REMARK  161  A    between atoms: _388  and  _391
REMARK  162  A    between atoms: _391  and  _392
REMARK  163  A    between atoms: _392  and  _393
REMARK  164  A    between atoms: _393  and  _394
REMARK  165  A    between atoms: _394  and  _395
REMARK  166  A    between atoms: _399  and  _401
REMARK  167  A    between atoms: _401  and  _402
REMARK  168  A    between atoms: _401  and  _404
REMARK  169  A    between atoms: _404  and  _405
REMARK  170  A    between atoms: _405  and  _406
REMARK  171  A    between atoms: _408  and  _410
REMARK  172  A    between atoms: _410  and  _411
REMARK  173  A    between atoms: _410  and  _413
REMARK  174  A    between atoms: _413  and  _414
REMARK  175  A    between atoms: _417  and  _419
REMARK  176  A    between atoms: _419  and  _420
REMARK  177  A    between atoms: _419  and  _422
REMARK  178  A    between atoms: _425  and  _427
REMARK  179  A    between atoms: _427  and  _428
REMARK  180  A    between atoms: _430  and  _432
REMARK  181  A    between atoms: _432  and  _433
REMARK  182  A    between atoms: _432  and  _435
REMARK  183  A    between atoms: _435  and  _436
REMARK  184  A    between atoms: _439  and  _441
REMARK  185  A    between atoms: _441  and  _442
REMARK  186  A    between atoms: _444  and  _446
REMARK  187  A    between atoms: _446  and  _447
REMARK  188  A    between atoms: _449  and  _451
REMARK  189  A    between atoms: _451  and  _452
REMARK  190  A    between atoms: _451  and  _454
REMARK  191  A    between atoms: _457  and  _459
REMARK  192  A    between atoms: _459  and  _460
REMARK  193  A    between atoms: _459  and  _462
REMARK  194  A    between atoms: _465  and  _467
REMARK  195  A    between atoms: _467  and  _468
REMARK  196  A    between atoms: _467  and  _470
REMARK  197  A    between atoms: _470  and  _471
REMARK  198  A    between atoms: _475  and  _476
REMARK  199  A    between atoms: _481  and  _483
REMARK  200  A    between atoms: _483  and  _484
REMARK  201  A    between atoms: _483  and  _486
REMARK  202  A    between atoms: _486  and  _487
REMARK  203  A    between atoms: _491  and  _492
REMARK  204  A    between atoms: _497  and  _499
REMARK  205  A    between atoms: _499  and  _500
REMARK  206  A    between atoms: _503  and  _505
REMARK  207  A    between atoms: _505  and  _506
REMARK  208  A    between atoms: _505  and  _508
REMARK  209  A    between atoms: _508  and  _509
REMARK  210  A    between atoms: _514  and  _516
REMARK  211  A    between atoms: _516  and  _517
REMARK  212  A    between atoms: _516  and  _519
REMARK  213  A    between atoms: _519  and  _520
REMARK  214  A    between atoms: _523  and  _525
REMARK  215  A    between atoms: _525  and  _526
REMARK  216  A    between atoms: _525  and  _528
REMARK  217  A    between atoms: _528  and  _529
REMARK  218  A    between atoms: _532  and  _534
REMARK  219  A    between atoms: _534  and  _535
REMARK  220  A    between atoms: _537  and  _539
REMARK  221  A    between atoms: _539  and  _540
REMARK  222  A    between atoms: _539  and  _542
REMARK  223  A    between atoms: _542  and  _543
REMARK  224  A    between atoms: _543  and  _544
REMARK  225  A    between atoms: _544  and  _545
REMARK  226  A    between atoms: _554  and  _556
REMARK  227  A    between atoms: _556  and  _557
REMARK  228  A    between atoms: _556  and  _559
REMARK  229  A    between atoms: _559  and  _560
REMARK                            x       y       z     vdW  Elec       q    Type
REMARK                         _______ _______ _______ _____ _____    ______ ____
ROOT
ATOM      1  NE  ARG A   1      22.761 -19.314  38.424  0.00  0.00    -0.265 N 
ATOM      2  CZ  ARG A   1      22.918 -18.052  38.820  0.00  0.00    +0.342 C 
ATOM      3  NH2 ARG A   1      21.972 -17.467  39.551  0.00  0.00    -0.292 N 
ATOM      4 HH21 ARG A   1      22.090 -16.482  39.862  0.00  0.00    +0.255 HD
ATOM      5 HH22 ARG A   1      21.115 -17.995  39.811  0.00  0.00    +0.255 HD
ATOM      6  NH1 ARG A   1      24.021 -17.378  38.496  0.00  0.00    -0.292 N 
ATOM      7 HH11 ARG A   1      24.139 -16.393  38.808  0.00  0.00    +0.255 HD
ATOM      8 HH12 ARG A   1      24.764 -17.837  37.931  0.00  0.00    +0.255 HD
ATOM      9  HE  ARG A   1      21.886 -19.802  38.702  0.00  0.00    +0.259 HD
ENDROOT
BRANCH   1  10
ATOM     10  CD  ARG A   1      23.730 -20.062  37.627  0.00  0.00    +0.174 C 
BRANCH  10  11
ATOM     11  CG  ARG A   1      23.601 -21.521  37.914  0.00  0.00    +0.045 C 
BRANCH  11  12
ATOM     12  CB  ARG A   1      24.506 -22.342  37.045  0.00  0.00    +0.029 C 
BRANCH  12  13
ATOM     13  CA  ARG A   1      24.685 -23.760  37.561  0.00  0.00    +0.133 C 
BRANCH  13  14
ATOM     14  N   ARG A   1      25.630 -23.754  38.662  0.00  0.00    -0.239 NA
ATOM     15  H   ARG A   1      26.029 -22.844  38.969  0.00  0.00    +0.142 HD
ENDBRANCH  13  14
BRANCH  13  16
ATOM     16  C   ARG A   1      25.199 -24.635  36.443  0.00  0.00    +0.224 C 
ATOM     17  O   ARG A   1      26.393 -24.590  36.143  0.00  0.00    -0.287 OA
ENDBRANCH  13  16
ENDBRANCH  12  13
ENDBRANCH  11  12
ENDBRANCH  10  11
ENDBRANCH   1  10
TORSDOF 6
REMARK  Name = ../refined-set-2016/3ekp/3ekp_pocket.pdb
REMARK  229 active torsions:
REMARK  status: ('A' for Active; 'I' for Inactive)
REMARK    1  A    between atoms: _1  and  _3
REMARK    2  A    between atoms: _3  and  _4
REMARK    3  A    between atoms: _3  and  _6
REMARK    4  A    between atoms: _6  and  _7
REMARK    5  A    between atoms: _7  and  _8
REMARK    6  A    between atoms: _8  and  _9
REMARK    7  A    between atoms: _18  and  _20
REMARK    8  A    between atoms: _20  and  _21
REMARK    9  A    between atoms: _20  and  _23
REMARK   10  A    between atoms: _23  and  _24
REMARK   11  A    between atoms: _27  and  _29
REMARK   12  A    between atoms: _29  and  _30
REMARK   13  A    between atoms: _29  and  _32
REMARK   14  A    between atoms: _32  and  _33
REMARK   15  A    between atoms: _36  and  _38
REMARK   16  A    between atoms: _38  and  _39
REMARK   17  A    between atoms: _38  and  _41
REMARK   18  A    between atoms: _41  and  _42
REMARK   19  A    between atoms: _45  and  _47
REMARK   20  A    between atoms: _47  and  _48
REMARK   21  A    between atoms: _47  and  _50
REMARK   22  A    between atoms: _50  and  _51
REMARK   23  A    between atoms: _54  and  _56
REMARK   24  A    between atoms: _56  and  _57
REMARK   25  A    between atoms: _59  and  _61
REMARK   26  A    between atoms: _61  and  _62
REMARK   27  A    between atoms: _65  and  _67
REMARK   28  A    between atoms: _67  and  _68
REMARK   29  A    between atoms: _67  and  _70
REMARK   30  A    between atoms: _70  and  _71
REMARK   31  A    between atoms: _74  and  _76
REMARK   32  A    between atoms: _76  and  _77
REMARK   33  A    between atoms: _76  and  _79
REMARK   34  A    between atoms: _79  and  _80
REMARK   35  A    between atoms: _83  and  _85
REMARK   36  A    between atoms: _85  and  _86
REMARK   37  A    between atoms: _85  and  _88
REMARK   38  A    between atoms: _88  and  _89
REMARK   39  A    between atoms: _92  and  _94
REMARK   40  A    between atoms: _94  and  _95
REMARK   41  A    between atoms: _94  and  _97
REMARK   42  A    between atoms: _100  and  _102
REMARK   43  A    between atoms: _102  and  _103
REMARK   44  A    between atoms: _102  and  _105
REMARK   45  A    between atoms: _105  and  _106
REMARK   46  A    between atoms: _109  and  _111
REMARK   47  A    between atoms: _111  and  _112
REMARK   48  A    between atoms: _111  and  _114
REMARK   49  A    between atoms: _114  and  _115
REMARK   50  A    between atoms: _115  and  _116
REMARK   51  A    between atoms: _118  and  _120
REMARK   52  A    between atoms: _120  and  _121
REMARK   53  A    between atoms: _120  and  _123
REMARK   54  A    between atoms: _123  and  _124
REMARK   55  A    between atoms: _127  and  _129
REMARK   56  A    between atoms: _129  and  _130
REMARK   57  A    between atoms: _129  and  _132
REMARK   58  A    between atoms: _135  and  _137
REMARK   59  A    between atoms: _137  and  _138
REMARK   60  A    between atoms: _140  and  _142
REMARK   61  A    between atoms: _142  and  _143
REMARK   62  A    between atoms: _142  and  _145
REMARK   63  A    between atoms: _145  and  _146
REMARK   64  A    between atoms: _149  and  _151
REMARK   65  A    between atoms: _151  and  _152
REMARK   66  A    between atoms: _154  and  _156
REMARK   67  A    between atoms: _156  and  _157
REMARK   68  A    between atoms: _159  and  _161
REMARK   69  A    between atoms: _161  and  _162
REMARK   70  A    between atoms: _161  and  _164
REMARK   71  A    between atoms: _167  and  _169
REMARK   72  A    between atoms: _169  and  _170
REMARK   73  A    between atoms: _169  and  _172
REMARK   74  A    between atoms: _175  and  _177
REMARK   75  A    between atoms: _177  and  _178
REMARK   76  A    between atoms: _177  and  _180
REMARK   77  A    between atoms: _180  and  _181
REMARK   78  A    between atoms: _184  and  _186
REMARK   79  A    between atoms: _186  and  _187
REMARK   80  A    between atoms: _186  and  _189
REMARK   81  A    between atoms: _189  and  _190
REMARK   82  A    between atoms: _194  and  _195
REMARK   83  A    between atoms: _200  and  _202
REMARK   84  A    between atoms: _202  and  _203
REMARK   85  A    between atoms: _206  and  _208
REMARK   86  A    between atoms: _208  and  _209
REMARK   87  A    between atoms: _208  and  _211
REMARK   88  A    between atoms: _211  and  _212
REMARK   89  A    between atoms: _217  and  _219
REMARK   90  A    between atoms: _219  and  _220
REMARK   91  A    between atoms: _219  and  _222
REMARK   92  A    between atoms: _222  and  _223
REMARK   93  A    between atoms: _226  and  _228
REMARK   94  A    between atoms: _228  and  _229
REMARK   95  A    between atoms: _228  and  _231
REMARK   96  A    between atoms: _231  and  _232
REMARK   97  A    between atoms: _235  and  _237
REMARK   98  A    between atoms: _237  and  _238
REMARK   99  A    between atoms: _240  and  _242
REMARK  100  A    between atoms: _242  and  _243
REMARK  101  A    between atoms: _242  and  _245
REMARK  102  A    between atoms: _245  and  _246
REMARK  103  A    between atoms: _246  and  _247
REMARK  104  A    between atoms: _247  and  _248
REMARK  105  A    between atoms: _257  and  _259
REMARK  106  A    between atoms: _259  and  _260
REMARK  107  A    between atoms: _259  and  _262
REMARK  108  A    between atoms: _262  and  _263
REMARK  109  A    between atoms: _268  and  _270
REMARK  110  A    between atoms: _270  and  _271
REMARK  111  A    between atoms: _270  and  _273
REMARK  112  A    between atoms: _273  and  _274
REMARK  113  A    between atoms: _274  and  _275
REMARK  114  A    between atoms: _275  and  _276
REMARK  115  A    between atoms: _285  and  _287
REMARK  116  A    between atoms: _287  and  _288
REMARK  117  A    between atoms: _287  and  _290
REMARK  118  A    between atoms: _290  and  _291
REMARK  119  A    between atoms: _294  and  _296
REMARK  120  A    between atoms: _296  and  _297
REMARK  121  A    between atoms: _296  and  _299
REMARK  122  A    between atoms: _299  and  _300
REMARK  123  A    between atoms: _303  and  _305
REMARK  124  A    between atoms: _305  and  _306
REMARK  125  A    between atoms: _305  and  _308
REMARK  126  A    between atoms: _308  and  _309
REMARK  127  A    between atoms: _312  and  _314
REMARK  128  A    between atoms: _314  and  _315
REMARK  129  A    between atoms: _314  and  _317
REMARK  130  A    between atoms: _317  and  _318
REMARK  131  A    between atoms: _321  and  _323
REMARK  132  A    between atoms: _323  and  _324
REMARK  133  A    between atoms: _326  and  _328
REMARK  134  A    between atoms: _328  and  _329
REMARK  135  A    between atoms: _332  and  _334
REMARK  136  A    between atoms: _334  and  _335
REMARK  137  A    between atoms: _334  and  _337
REMARK  138  A    between atoms: _337  and  _338
REMARK  139  A    between atoms: _341  and  _343
REMARK  140  A    between atoms: _343  and  _344
REMARK  141  A    between atoms: _343  and  _346
REMARK  142  A    between atoms: _346  and  _347
REMARK  143  A    between atoms: _350  and  _352
REMARK  144  A    between atoms: _352  and  _353
REMARK  145  A    between atoms: _352  and  _355
REMARK  146  A    between atoms: _355  and  _356
REMARK  147  A    between atoms: _359  and  _361
REMARK  148  A    between atoms: _361  and  _362
REMARK  149  A    between atoms: _361  and  _364
REMARK  150  A    between atoms: _367  and  _369
REMARK  151  A    between atoms: _369  and  _370
REMARK  152  A    between atoms: _369  and  _372
REMARK  153  A    between atoms: _372  and  _373
REMARK  154  A    between atoms: _376  and  _378
REMARK  155  A    between atoms: _378  and  _379
REMARK  156  A    between atoms: _378  and  _381
REMARK  157  A    between atoms: _381  and  _382
REMARK  158  A    between atoms: _382  and  _383
REMARK  159  A    between atoms: _386  and  _388
REMARK  160  A    between atoms: _388  and  _389
REMARK  161  A    between atoms: _388  and  _391
REMARK  162  A    between atoms: _391  and  _392
REMARK  163  A    between atoms: _392  and  _393
REMARK  164  A    between atoms: _393  and  _394
REMARK  165  A    between atoms: _394  and  _395
REMARK  166  A    between atoms: _399  and  _401
REMARK  167  A    between atoms: _401  and  _402
REMARK  168  A    between atoms: _401  and  _404
REMARK  169  A    between atoms: _404  and  _405
REMARK  170  A    between atoms: _405  and  _406
REMARK  171  A    between atoms: _408  and  _410
REMARK  172  A    between atoms: _410  and  _411
REMARK  173  A    between atoms: _410  and  _413
REMARK  174  A    between atoms: _413  and  _414
REMARK  175  A    between atoms: _417  and  _419
REMARK  176  A    between atoms: _419  and  _420
REMARK  177  A    between atoms: _419  and  _422
REMARK  178  A    between atoms: _425  and  _427
REMARK  179  A    between atoms: _427  and  _428
REMARK  180  A    between atoms: _430  and  _432
REMARK  181  A    between atoms: _432  and  _433
REMARK  182  A    between atoms: _432  and  _435
REMARK  183  A    between atoms: _435  and  _436
REMARK  184  A    between atoms: _439  and  _441
REMARK  185  A    between atoms: _441  and  _442
REMARK  186  A    between atoms: _444  and  _446
REMARK  187  A    between atoms: _446  and  _447
REMARK  188  A    between atoms: _449  and  _451
REMARK  189  A    between atoms: _451  and  _452
REMARK  190  A    between atoms: _451  and  _454
REMARK  191  A    between atoms: _457  and  _459
REMARK  192  A    between atoms: _459  and  _460
REMARK  193  A    between atoms: _459  and  _462
REMARK  194  A    between atoms: _465  and  _467
REMARK  195  A    between atoms: _467  and  _468
REMARK  196  A    between atoms: _467  and  _470
REMARK  197  A    between atoms: _470  and  _471
REMARK  198  A    between atoms: _475  and  _476
REMARK  199  A    between atoms: _481  and  _483
REMARK  200  A    between atoms: _483  and  _484
REMARK  201  A    between atoms: _483  and  _486
REMARK  202  A    between atoms: _486  and  _487
REMARK  203  A    between atoms: _491  and  _492
REMARK  204  A    between atoms: _497  and  _499
REMARK  205  A    between atoms: _499  and  _500
REMARK  206  A    between atoms: _503  and  _505
REMARK  207  A    between atoms: _505  and  _506
REMARK  208  A    between atoms: _505  and  _508
REMARK  209  A    between atoms: _508  and  _509
REMARK  210  A    between atoms: _514  and  _516
REMARK  211  A    between atoms: _516  and  _517
REMARK  212  A    between atoms: _516  and  _519
REMARK  213  A    between atoms: _519  and  _520
REMARK  214  A    between atoms: _523  and  _525
REMARK  215  A    between atoms: _525  and  _526
REMARK  216  A    between atoms: _525  and  _528
REMARK  217  A    between atoms: _528  and  _529
REMARK  218  A    between atoms: _532  and  _534
REMARK  219  A    between atoms: _534  and  _535
REMARK  220  A    between atoms: _537  and  _539
REMARK  221  A    between atoms: _539  and  _540
REMARK  222  A    between atoms: _539  and  _542
REMARK  223  A    between atoms: _542  and  _543
REMARK  224  A    between atoms: _543  and  _544
REMARK  225  A    between atoms: _544  and  _545
REMARK  226  A    between atoms: _554  and  _556
REMARK  227  A    between atoms: _556  and  _557
REMARK  228  A    between atoms: _556  and  _559
REMARK  229  A    between atoms: _559  and  _560
REMARK                            x       y       z     vdW  Elec       q    Type
REMARK                         _______ _______ _______ _____ _____    ______ ____
ROOT
ATOM      1  C   ALA A   6      11.311 -26.595  30.156  0.00  0.00    +0.241 C 
ATOM      2  O   ALA A   6      12.089 -27.466  29.793  0.00  0.00    -0.273 OA
ATOM      3  N   ASP A   7      10.055 -26.526  29.716  0.00  0.00    -0.297 N 
ATOM      4  H   ASP A   7       9.422 -25.779  30.068  0.00  0.00    +0.150 HD
ENDROOT
BRANCH   1   5
ATOM      5  CA  ALA A   6      11.755 -25.581  31.193  0.00  0.00    +0.149 C 
ATOM      6  CB  ALA A   6      12.889 -24.714  30.634  0.00  0.00    +0.031 C 
BRANCH   5   9
ATOM      7  C   GLY A   5      11.591 -26.428  33.484  0.00  0.00    +0.243 C 
ATOM      8  O   GLY A   5      10.499 -25.880  33.692  0.00  0.00    -0.273 OA
ATOM      9  N   ALA A   6      12.239 -26.359  32.325  0.00  0.00    -0.297 N 
ATOM     10  H   ALA A   6      13.131 -26.884  32.222  0.00  0.00    +0.150 HD
BRANCH   7  11
ATOM     11  CA  GLY A   5      12.248 -27.259  34.569  0.00  0.00    +0.176 C 
BRANCH  11  13
ATOM     12  C   THR A   4      13.631 -29.073  33.710  0.00  0.00    +0.243 C 
ATOM     13  N   GLY A   5      13.518 -27.841  34.210  0.00  0.00    -0.295 N 
ATOM     14  H   GLY A   5      14.381 -27.277  34.346  0.00  0.00    +0.150 HD
ATOM     15  O   THR A   4      12.665 -29.793  33.492  0.00  0.00    -0.273 OA
BRANCH  12  16
ATOM     16  CA  THR A   4      15.057 -29.591  33.433  0.00  0.00    +0.176 C 
BRANCH  16  18
ATOM     17  C   ASP A   3      15.996 -27.548  32.499  0.00  0.00    +0.241 C 
ATOM     18  N   THR A   4      16.052 -28.519  33.416  0.00  0.00    -0.295 N 
ATOM     19  H   THR A   4      16.812 -28.512  34.126  0.00  0.00    +0.150 HD
ATOM     20  O   ASP A   3      15.114 -27.502  31.638  0.00  0.00    -0.273 OA
BRANCH  17  21
ATOM     21  CA  ASP A   3      17.092 -26.481  32.557  0.00  0.00    +0.160 C 
BRANCH  21  24
ATOM     22  C   LEU A   2      19.463 -26.911  32.160  0.00  0.00    +0.241 C 
ATOM     23  O   LEU A   2      19.723 -26.977  33.357  0.00  0.00    -0.273 OA
ATOM     24  N   ASP A   3      18.220 -26.823  31.704  0.00  0.00    -0.297 N 
ATOM     25  H   ASP A   3      18.045 -27.006  30.695  0.00  0.00    +0.150 HD
BRANCH  22  26
ATOM     26  CA  LEU A   2      20.582 -26.900  31.093  0.00  0.00    +0.149 C 
BRANCH  26  28
ATOM     27  C   LEU A   1      20.860 -24.512  30.821  0.00  0.00    +0.238 C 
ATOM     28  N   LEU A   2      21.360 -25.681  31.202  0.00  0.00    -0.297 N 
ATOM     29  H   LEU A   2      22.326 -25.723  31.585  0.00  0.00    +0.150 HD
ATOM     30  O   LEU A   1      19.840 -24.416  30.128  0.00  0.00    -0.274 OA
BRANCH  27  31
ATOM     31  CA  LEU A   1      21.646 -23.268  31.219  0.00  0.00    +0.145 C 
BRANCH  31  32
ATOM     32  N   LEU A   1      22.026 -22.513  30.040  0.00  0.00    -0.238 NA
ATOM     33  H   LEU A   1      21.377 -21.764  29.723  0.00  0.00    +0.142 HD
ENDBRANCH  31  32
BRANCH  31  34
ATOM     34  CB  LEU A   1      20.749 -22.372  32.090  0.00  0.00    +0.026 C 
BRANCH  34  35
ATOM     35  CG  LEU A   1      20.421 -22.766  33.525  0.00  0.00    +0.002 C 
ATOM     36  CD2 LEU A   1      21.673 -23.045  34.331  0.00  0.00    +0.000 C 
ATOM     37  CD1 LEU A   1      19.635 -21.637  34.179  0.00  0.00    +0.000 C 
ENDBRANCH  34  35
ENDBRANCH  31  34
ENDBRANCH  27  31
ENDBRANCH  26  28
BRANCH  26  38
ATOM     38  CB  LEU A   2      21.488 -28.113  31.255  0.00  0.00    +0.029 C 
BRANCH  38  39
ATOM     39  CG  LEU A   2      22.658 -28.253  30.279  0.00  0.00    +0.002 C 
ATOM     40  CD2 LEU A   2      23.350 -29.575  30.514  0.00  0.00    +0.000 C 
ATOM     41  CD1 LEU A   2      22.241 -28.131  28.810  0.00  0.00    +0.000 C 
ENDBRANCH  38  39
ENDBRANCH  26  38
ENDBRANCH  22  26
ENDBRANCH  21  24
BRANCH  21  42
ATOM     42  CB  ASP A   3      16.527 -25.129  32.129  0.00  0.00    +0.143 C 
BRANCH  42  43
ATOM     43  CG  ASP A   3      15.554 -24.543  33.148  0.00  0.00    +0.367 C 
ATOM     44  OD2 ASP A   3      15.111 -25.263  34.042  0.00  0.00    -0.246 OA
ATOM     45  OD1 ASP A   3      15.194 -23.364  33.032  0.00  0.00    -0.246 OA
ENDBRANCH  42  43
ENDBRANCH  21  42
ENDBRANCH  17  21
ENDBRANCH  16  18
BRANCH  16  46
ATOM     46  CB  THR A   4      15.426 -30.713  34.457  0.00  0.00    +0.137 C 
ATOM     47  CG2 THR A   4      16.662 -31.421  34.026  0.00  0.00    +0.034 C 
BRANCH  46  48
ATOM     48  OG1 THR A   4      15.621 -30.165  35.772  0.00  0.00    -0.382 OA
ATOM     49  HG1 THR A   4      14.787 -29.723  36.071  0.00  0.00    +0.210 HD
ENDBRANCH  46  48
ENDBRANCH  16  46
ENDBRANCH  12  16
ENDBRANCH  11  13
ENDBRANCH   7  11
ENDBRANCH   5   9
ENDBRANCH   1   5
BRANCH   3  50
ATOM     50  CA  ASP A   7       9.567 -27.490  28.746  0.00  0.00    +0.160 C 
BRANCH  50  51
ATOM     51  C   ASP A   7      10.347 -27.276  27.448  0.00  0.00    +0.241 C 
ATOM     52  N   ASP A   8      10.653 -26.009  27.191  0.00  0.00    -0.297 N 
ATOM     53  H   ASP A   8      10.553 -25.307  27.952  0.00  0.00    +0.150 HD
ATOM     54  O   ASP A   7      10.517 -28.200  26.642  0.00  0.00    -0.273 OA
BRANCH  52  55
ATOM     55  CA  ASP A   8      11.123 -25.565  25.886  0.00  0.00    +0.160 C 
BRANCH  55  56
ATOM     56  C   ASP A   8      12.394 -24.740  26.040  0.00  0.00    +0.241 C 
ATOM     57  O   ASP A   8      12.705 -24.253  27.110  0.00  0.00    -0.273 OA
ATOM     58  N   THR A   9      13.100 -24.568  24.935  0.00  0.00    -0.295 N 
ATOM     59  H   THR A   9      12.708 -24.921  24.039  0.00  0.00    +0.150 HD
BRANCH  58  60
ATOM     60  CA  THR A   9      14.390 -23.914  24.909  0.00  0.00    +0.176 C 
BRANCH  60  61
ATOM     61  C   THR A   9      14.125 -22.476  24.513  0.00  0.00    +0.243 C 
ATOM     62  N   VAL A  10      14.625 -21.533  25.307  0.00  0.00    -0.297 N 
ATOM     63  H   VAL A  10      15.161 -21.824  26.149  0.00  0.00    +0.150 HD
ATOM     64  O   THR A   9      13.417 -22.237  23.547  0.00  0.00    -0.273 OA
BRANCH  62  65
ATOM     65  CA  VAL A  10      14.455 -20.114  25.048  0.00  0.00    +0.149 C 
BRANCH  65  66
ATOM     66  C   VAL A  10      15.821 -19.456  25.111  0.00  0.00    +0.241 C 
ATOM     67  O   VAL A  10      16.541 -19.604  26.102  0.00  0.00    -0.273 OA
ATOM     68  N   LEU A  11      16.121 -18.655  24.096  0.00  0.00    -0.298 N 
ATOM     69  H   LEU A  11      15.436 -18.552  23.320  0.00  0.00    +0.150 HD
BRANCH  68  70
ATOM     70  CA  LEU A  11      17.368 -17.918  24.028  0.00  0.00    +0.137 C 
BRANCH  70  71
ATOM     71  C   LEU A  11      17.067 -16.433  24.068  0.00  0.00    +0.227 C 
ATOM     72  O   LEU A  11      15.993 -15.985  23.638  0.00  0.00    -0.286 OA
ENDBRANCH  70  71
BRANCH  70  73
ATOM     73  CB  LEU A  11      18.107 -18.273  22.742  0.00  0.00    +0.028 C 
BRANCH  73  74
ATOM     74  CG  LEU A  11      18.455 -19.754  22.548  0.00  0.00    +0.002 C 
ATOM     75  CD2 LEU A  11      19.290 -20.263  23.706  0.00  0.00    +0.000 C 
ATOM     76  CD1 LEU A  11      19.206 -19.933  21.241  0.00  0.00    +0.000 C 
ENDBRANCH  73  74
ENDBRANCH  70  73
ENDBRANCH  68  70
ENDBRANCH  65  66
BRANCH  65  77
ATOM     77  CB  VAL A  10      13.611 -19.393  26.137  0.00  0.00    +0.027 C 
ATOM     78  CG2 VAL A  10      12.520 -20.273  26.659  0.00  0.00    +0.002 C 
ATOM     79  CG1 VAL A  10      13.046 -18.083  25.582  0.00  0.00    +0.002 C 
ENDBRANCH  65  77
ENDBRANCH  62  65
ENDBRANCH  60  61
BRANCH  60  80
ATOM     80  CB  THR A   9      15.304 -24.591  23.869  0.00  0.00    +0.137 C 
ATOM     81  CG2 THR A   9      16.598 -23.769  23.632  0.00  0.00    +0.034 C 
BRANCH  80  82
ATOM     82  OG1 THR A   9      15.621 -25.933  24.286  0.00  0.00    -0.382 OA
ATOM     83  HG1 THR A   9      14.785 -26.456  24.374  0.00  0.00    +0.210 HD
ENDBRANCH  80  82
ENDBRANCH  60  80
ENDBRANCH  58  60
ENDBRANCH  55  56
BRANCH  55  84
ATOM     84  CB  ASP A   8      10.071 -24.685  25.205  0.00  0.00    +0.143 C 
BRANCH  84  85
ATOM     85  CG  ASP A   8       8.749 -25.395  25.002  0.00  0.00    +0.367 C 
ATOM     86  OD2 ASP A   8       7.713 -24.857  25.449  0.00  0.00    -0.246 OA
ATOM     87  OD1 ASP A   8       8.745 -26.462  24.352  0.00  0.00    -0.246 OA
ENDBRANCH  84  85
ENDBRANCH  55  84
ENDBRANCH  52  55
ENDBRANCH  50  51
BRANCH  50  88
ATOM     88  CB  ASP A   7       8.091 -27.274  28.422  0.00  0.00    +0.143 C 
BRANCH  88  89
ATOM     89  CG  ASP A   7       7.160 -27.529  29.587  0.00  0.00    +0.367 C 
ATOM     90  OD2 ASP A   7       7.489 -28.298  30.509  0.00  0.00    -0.246 OA
ATOM     91  OD1 ASP A   7       6.023 -27.031  29.499  0.00  0.00    -0.246 OA
ENDBRANCH  88  89
ENDBRANCH  50  88
ENDBRANCH   3  50
TORSDOF 39
REMARK  Name = ../refined-set-2016/3ekp/3ekp_pocket.pdb
REMARK  229 active torsions:
REMARK  status: ('A' for Active; 'I' for Inactive)
REMARK    1  A    between atoms: _1  and  _3
REMARK    2  A    between atoms: _3  and  _4
REMARK    3  A    between atoms: _3  and  _6
REMARK    4  A    between atoms: _6  and  _7
REMARK    5  A    between atoms: _7  and  _8
REMARK    6  A    between atoms: _8  and  _9
REMARK    7  A    between atoms: _18  and  _20
REMARK    8  A    between atoms: _20  and  _21
REMARK    9  A    between atoms: _20  and  _23
REMARK   10  A    between atoms: _23  and  _24
REMARK   11  A    between atoms: _27  and  _29
REMARK   12  A    between atoms: _29  and  _30
REMARK   13  A    between atoms: _29  and  _32
REMARK   14  A    between atoms: _32  and  _33
REMARK   15  A    between atoms: _36  and  _38
REMARK   16  A    between atoms: _38  and  _39
REMARK   17  A    between atoms: _38  and  _41
REMARK   18  A    between atoms: _41  and  _42
REMARK   19  A    between atoms: _45  and  _47
REMARK   20  A    between atoms: _47  and  _48
REMARK   21  A    between atoms: _47  and  _50
REMARK   22  A    between atoms: _50  and  _51
REMARK   23  A    between atoms: _54  and  _56
REMARK   24  A    between atoms: _56  and  _57
REMARK   25  A    between atoms: _59  and  _61
REMARK   26  A    between atoms: _61  and  _62
REMARK   27  A    between atoms: _65  and  _67
REMARK   28  A    between atoms: _67  and  _68
REMARK   29  A    between atoms: _67  and  _70
REMARK   30  A    between atoms: _70  and  _71
REMARK   31  A    between atoms: _74  and  _76
REMARK   32  A    between atoms: _76  and  _77
REMARK   33  A    between atoms: _76  and  _79
REMARK   34  A    between atoms: _79  and  _80
REMARK   35  A    between atoms: _83  and  _85
REMARK   36  A    between atoms: _85  and  _86
REMARK   37  A    between atoms: _85  and  _88
REMARK   38  A    between atoms: _88  and  _89
REMARK   39  A    between atoms: _92  and  _94
REMARK   40  A    between atoms: _94  and  _95
REMARK   41  A    between atoms: _94  and  _97
REMARK   42  A    between atoms: _100  and  _102
REMARK   43  A    between atoms: _102  and  _103
REMARK   44  A    between atoms: _102  and  _105
REMARK   45  A    between atoms: _105  and  _106
REMARK   46  A    between atoms: _109  and  _111
REMARK   47  A    between atoms: _111  and  _112
REMARK   48  A    between atoms: _111  and  _114
REMARK   49  A    between atoms: _114  and  _115
REMARK   50  A    between atoms: _115  and  _116
REMARK   51  A    between atoms: _118  and  _120
REMARK   52  A    between atoms: _120  and  _121
REMARK   53  A    between atoms: _120  and  _123
REMARK   54  A    between atoms: _123  and  _124
REMARK   55  A    between atoms: _127  and  _129
REMARK   56  A    between atoms: _129  and  _130
REMARK   57  A    between atoms: _129  and  _132
REMARK   58  A    between atoms: _135  and  _137
REMARK   59  A    between atoms: _137  and  _138
REMARK   60  A    between atoms: _140  and  _142
REMARK   61  A    between atoms: _142  and  _143
REMARK   62  A    between atoms: _142  and  _145
REMARK   63  A    between atoms: _145  and  _146
REMARK   64  A    between atoms: _149  and  _151
REMARK   65  A    between atoms: _151  and  _152
REMARK   66  A    between atoms: _154  and  _156
REMARK   67  A    between atoms: _156  and  _157
REMARK   68  A    between atoms: _159  and  _161
REMARK   69  A    between atoms: _161  and  _162
REMARK   70  A    between atoms: _161  and  _164
REMARK   71  A    between atoms: _167  and  _169
REMARK   72  A    between atoms: _169  and  _170
REMARK   73  A    between atoms: _169  and  _172
REMARK   74  A    between atoms: _175  and  _177
REMARK   75  A    between atoms: _177  and  _178
REMARK   76  A    between atoms: _177  and  _180
REMARK   77  A    between atoms: _180  and  _181
REMARK   78  A    between atoms: _184  and  _186
REMARK   79  A    between atoms: _186  and  _187
REMARK   80  A    between atoms: _186  and  _189
REMARK   81  A    between atoms: _189  and  _190
REMARK   82  A    between atoms: _194  and  _195
REMARK   83  A    between atoms: _200  and  _202
REMARK   84  A    between atoms: _202  and  _203
REMARK   85  A    between atoms: _206  and  _208
REMARK   86  A    between atoms: _208  and  _209
REMARK   87  A    between atoms: _208  and  _211
REMARK   88  A    between atoms: _211  and  _212
REMARK   89  A    between atoms: _217  and  _219
REMARK   90  A    between atoms: _219  and  _220
REMARK   91  A    between atoms: _219  and  _222
REMARK   92  A    between atoms: _222  and  _223
REMARK   93  A    between atoms: _226  and  _228
REMARK   94  A    between atoms: _228  and  _229
REMARK   95  A    between atoms: _228  and  _231
REMARK   96  A    between atoms: _231  and  _232
REMARK   97  A    between atoms: _235  and  _237
REMARK   98  A    between atoms: _237  and  _238
REMARK   99  A    between atoms: _240  and  _242
REMARK  100  A    between atoms: _242  and  _243
REMARK  101  A    between atoms: _242  and  _245
REMARK  102  A    between atoms: _245  and  _246
REMARK  103  A    between atoms: _246  and  _247
REMARK  104  A    between atoms: _247  and  _248
REMARK  105  A    between atoms: _257  and  _259
REMARK  106  A    between atoms: _259  and  _260
REMARK  107  A    between atoms: _259  and  _262
REMARK  108  A    between atoms: _262  and  _263
REMARK  109  A    between atoms: _268  and  _270
REMARK  110  A    between atoms: _270  and  _271
REMARK  111  A    between atoms: _270  and  _273
REMARK  112  A    between atoms: _273  and  _274
REMARK  113  A    between atoms: _274  and  _275
REMARK  114  A    between atoms: _275  and  _276
REMARK  115  A    between atoms: _285  and  _287
REMARK  116  A    between atoms: _287  and  _288
REMARK  117  A    between atoms: _287  and  _290
REMARK  118  A    between atoms: _290  and  _291
REMARK  119  A    between atoms: _294  and  _296
REMARK  120  A    between atoms: _296  and  _297
REMARK  121  A    between atoms: _296  and  _299
REMARK  122  A    between atoms: _299  and  _300
REMARK  123  A    between atoms: _303  and  _305
REMARK  124  A    between atoms: _305  and  _306
REMARK  125  A    between atoms: _305  and  _308
REMARK  126  A    between atoms: _308  and  _309
REMARK  127  A    between atoms: _312  and  _314
REMARK  128  A    between atoms: _314  and  _315
REMARK  129  A    between atoms: _314  and  _317
REMARK  130  A    between atoms: _317  and  _318
REMARK  131  A    between atoms: _321  and  _323
REMARK  132  A    between atoms: _323  and  _324
REMARK  133  A    between atoms: _326  and  _328
REMARK  134  A    between atoms: _328  and  _329
REMARK  135  A    between atoms: _332  and  _334
REMARK  136  A    between atoms: _334  and  _335
REMARK  137  A    between atoms: _334  and  _337
REMARK  138  A    between atoms: _337  and  _338
REMARK  139  A    between atoms: _341  and  _343
REMARK  140  A    between atoms: _343  and  _344
REMARK  141  A    between atoms: _343  and  _346
REMARK  142  A    between atoms: _346  and  _347
REMARK  143  A    between atoms: _350  and  _352
REMARK  144  A    between atoms: _352  and  _353
REMARK  145  A    between atoms: _352  and  _355
REMARK  146  A    between atoms: _355  and  _356
REMARK  147  A    between atoms: _359  and  _361
REMARK  148  A    between atoms: _361  and  _362
REMARK  149  A    between atoms: _361  and  _364
REMARK  150  A    between atoms: _367  and  _369
REMARK  151  A    between atoms: _369  and  _370
REMARK  152  A    between atoms: _369  and  _372
REMARK  153  A    between atoms: _372  and  _373
REMARK  154  A    between atoms: _376  and  _378
REMARK  155  A    between atoms: _378  and  _379
REMARK  156  A    between atoms: _378  and  _381
REMARK  157  A    between atoms: _381  and  _382
REMARK  158  A    between atoms: _382  and  _383
REMARK  159  A    between atoms: _386  and  _388
REMARK  160  A    between atoms: _388  and  _389
REMARK  161  A    between atoms: _388  and  _391
REMARK  162  A    between atoms: _391  and  _392
REMARK  163  A    between atoms: _392  and  _393
REMARK  164  A    between atoms: _393  and  _394
REMARK  165  A    between atoms: _394  and  _395
REMARK  166  A    between atoms: _399  and  _401
REMARK  167  A    between atoms: _401  and  _402
REMARK  168  A    between atoms: _401  and  _404
REMARK  169  A    between atoms: _404  and  _405
REMARK  170  A    between atoms: _405  and  _406
REMARK  171  A    between atoms: _408  and  _410
REMARK  172  A    between atoms: _410  and  _411
REMARK  173  A    between atoms: _410  and  _413
REMARK  174  A    between atoms: _413  and  _414
REMARK  175  A    between atoms: _417  and  _419
REMARK  176  A    between atoms: _419  and  _420
REMARK  177  A    between atoms: _419  and  _422
REMARK  178  A    between atoms: _425  and  _427
REMARK  179  A    between atoms: _427  and  _428
REMARK  180  A    between atoms: _430  and  _432
REMARK  181  A    between atoms: _432  and  _433
REMARK  182  A    between atoms: _432  and  _435
REMARK  183  A    between atoms: _435  and  _436
REMARK  184  A    between atoms: _439  and  _441
REMARK  185  A    between atoms: _441  and  _442
REMARK  186  A    between atoms: _444  and  _446
REMARK  187  A    between atoms: _446  and  _447
REMARK  188  A    between atoms: _449  and  _451
REMARK  189  A    between atoms: _451  and  _452
REMARK  190  A    between atoms: _451  and  _454
REMARK  191  A    between atoms: _457  and  _459
REMARK  192  A    between atoms: _459  and  _460
REMARK  193  A    between atoms: _459  and  _462
REMARK  194  A    between atoms: _465  and  _467
REMARK  195  A    between atoms: _467  and  _468
REMARK  196  A    between atoms: _467  and  _470
REMARK  197  A    between atoms: _470  and  _471
REMARK  198  A    between atoms: _475  and  _476
REMARK  199  A    between atoms: _481  and  _483
REMARK  200  A    between atoms: _483  and  _484
REMARK  201  A    between atoms: _483  and  _486
REMARK  202  A    between atoms: _486  and  _487
REMARK  203  A    between atoms: _491  and  _492
REMARK  204  A    between atoms: _497  and  _499
REMARK  205  A    between atoms: _499  and  _500
REMARK  206  A    between atoms: _503  and  _505
REMARK  207  A    between atoms: _505  and  _506
REMARK  208  A    between atoms: _505  and  _508
REMARK  209  A    between atoms: _508  and  _509
REMARK  210  A    between atoms: _514  and  _516
REMARK  211  A    between atoms: _516  and  _517
REMARK  212  A    between atoms: _516  and  _519
REMARK  213  A    between atoms: _519  and  _520
REMARK  214  A    between atoms: _523  and  _525
REMARK  215  A    between atoms: _525  and  _526
REMARK  216  A    between atoms: _525  and  _528
REMARK  217  A    between atoms: _528  and  _529
REMARK  218  A    between atoms: _532  and  _534
REMARK  219  A    between atoms: _534  and  _535
REMARK  220  A    between atoms: _537  and  _539
REMARK  221  A    between atoms: _539  and  _540
REMARK  222  A    between atoms: _539  and  _542
REMARK  223  A    between atoms: _542  and  _543
REMARK  224  A    between atoms: _543  and  _544
REMARK  225  A    between atoms: _544  and  _545
REMARK  226  A    between atoms: _554  and  _556
REMARK  227  A    between atoms: _556  and  _557
REMARK  228  A    between atoms: _556  and  _559
REMARK  229  A    between atoms: _559  and  _560
REMARK                            x       y       z     vdW  Elec       q    Type
REMARK                         _______ _______ _______ _____ _____    ______ ____
ROOT
ATOM      1  C   VAL A   3       5.990 -19.269  32.376  0.00  0.00    +0.241 C 
ATOM      2  N   GLY A   4       6.471 -18.289  33.124  0.00  0.00    -0.295 N 
ATOM      3  H   GLY A   4       6.158 -17.312  32.955  0.00  0.00    +0.150 HD
ATOM      4  O   VAL A   3       6.503 -20.386  32.310  0.00  0.00    -0.273 OA
ENDROOT
BRANCH   2   5
ATOM      5  CA  GLY A   4       7.431 -18.563  34.178  0.00  0.00    +0.176 C 
BRANCH   5   6
ATOM      6  C   GLY A   4       6.964 -18.057  35.520  0.00  0.00    +0.243 C 
ATOM      7  N   ILE A   5       7.899 -17.976  36.452  0.00  0.00    -0.297 N 
ATOM      8  H   ILE A   5       8.896 -18.088  36.177  0.00  0.00    +0.150 HD
ATOM      9  O   GLY A   4       5.813 -17.668  35.686  0.00  0.00    -0.273 OA
BRANCH   7  10
ATOM     10  CA  ILE A   5       7.579 -17.736  37.843  0.00  0.00    +0.149 C 
BRANCH  10  11
ATOM     11  C   ILE A   5       7.022 -16.326  38.060  0.00  0.00    +0.241 C 
ATOM     12  O   ILE A   5       6.260 -16.098  39.005  0.00  0.00    -0.273 OA
ATOM     13  N   GLY A   6       7.360 -15.401  37.159  0.00  0.00    -0.295 N 
ATOM     14  H   GLY A   6       7.964 -15.675  36.358  0.00  0.00    +0.150 HD
BRANCH  13  15
ATOM     15  CA  GLY A   6       6.905 -14.008  37.263  0.00  0.00    +0.176 C 
BRANCH  15  16
ATOM     16  C   GLY A   6       5.782 -13.632  36.300  0.00  0.00    +0.243 C 
ATOM     17  O   GLY A   6       5.345 -12.487  36.252  0.00  0.00    -0.273 OA
ATOM     18  N   GLY A   7       5.334 -14.614  35.527  0.00  0.00    -0.296 N 
ATOM     19  H   GLY A   7       5.843 -15.521  35.549  0.00  0.00    +0.150 HD
BRANCH  18  20
ATOM     20  CA  GLY A   7       4.174 -14.505  34.648  0.00  0.00    +0.163 C 
BRANCH  20  21
ATOM     21  C   GLY A   7       4.479 -14.837  33.200  0.00  0.00    +0.229 C 
ATOM     22  O   GLY A   7       5.427 -15.577  32.908  0.00  0.00    -0.286 OA
ENDBRANCH  20  21
ENDBRANCH  18  20
ENDBRANCH  15  16
ENDBRANCH  13  15
ENDBRANCH  10  11
BRANCH  10  23
ATOM     23  CB  ILE A   5       8.823 -18.005  38.723  0.00  0.00    +0.027 C 
ATOM     24  CG2 ILE A   5       9.765 -16.806  38.720  0.00  0.00    +0.002 C 
BRANCH  23  25
ATOM     25  CG1 ILE A   5       8.407 -18.408  40.140  0.00  0.00    +0.002 C 
ATOM     26  CD1 ILE A   5       9.407 -19.293  40.826  0.00  0.00    +0.000 C 
ENDBRANCH  23  25
ENDBRANCH  10  23
ENDBRANCH   7  10
ENDBRANCH   5   6
ENDBRANCH   2   5
BRANCH   1  27
ATOM     27  CA  VAL A   3       4.752 -18.940  31.583  0.00  0.00    +0.149 C 
BRANCH  27  29
ATOM     28  C   ILE A   2       5.057 -18.501  29.209  0.00  0.00    +0.241 C 
ATOM     29  N   VAL A   3       4.960 -19.376  30.204  0.00  0.00    -0.297 N 
ATOM     30  H   VAL A   3       5.034 -20.393  29.997  0.00  0.00    +0.150 HD
ATOM     31  O   ILE A   2       4.889 -17.290  29.365  0.00  0.00    -0.273 OA
BRANCH  28  32
ATOM     32  CA  ILE A   2       5.363 -19.077  27.828  0.00  0.00    +0.148 C 
BRANCH  32  34
ATOM     33  C   MET A   1       3.988 -18.477  25.940  0.00  0.00    +0.238 C 
ATOM     34  N   ILE A   2       4.932 -18.143  26.808  0.00  0.00    -0.297 N 
ATOM     35  H   ILE A   2       5.368 -17.200  26.756  0.00  0.00    +0.150 HD
ATOM     36  O   MET A   1       3.621 -19.638  25.772  0.00  0.00    -0.274 OA
BRANCH  33  37
ATOM     37  CA  MET A   1       3.422 -17.356  25.083  0.00  0.00    +0.146 C 
BRANCH  37  38
ATOM     38  N   MET A   1       3.380 -17.845  23.721  0.00  0.00    -0.238 NA
ATOM     39  H   MET A   1       2.714 -18.604  23.472  0.00  0.00    +0.142 HD
ENDBRANCH  37  38
BRANCH  37  40
ATOM     40  CB  MET A   1       2.021 -16.982  25.559  0.00  0.00    +0.038 C 
BRANCH  40  41
ATOM     41  CG  MET A   1       1.974 -15.653  26.311  0.00  0.00    +0.060 C 
BRANCH  41  42
ATOM     42  SD  MET A   1       1.962 -14.270  25.169  0.00  0.00    -0.139 S 
ATOM     43  CE  MET A   1       0.227 -14.009  24.900  0.00  0.00    +0.069 C 
ENDBRANCH  41  42
ENDBRANCH  40  41
ENDBRANCH  37  40
ENDBRANCH  33  37
ENDBRANCH  32  34
BRANCH  32  44
ATOM     44  CB  ILE A   2       6.851 -19.386  27.678  0.00  0.00    +0.027 C 
ATOM     45  CG2 ILE A   2       7.097 -20.098  26.347  0.00  0.00    +0.002 C 
BRANCH  44  46
ATOM     46  CG1 ILE A   2       7.674 -18.099  27.754  0.00  0.00    +0.002 C 
ATOM     47  CD1 ILE A   2       9.124 -18.312  28.035  0.00  0.00    +0.000 C 
ENDBRANCH  44  46
ENDBRANCH  32  44
ENDBRANCH  28  32
ENDBRANCH  27  29
BRANCH  27  48
ATOM     48  CB  VAL A   3       3.566 -19.662  32.279  0.00  0.00    +0.027 C 
ATOM     49  CG2 VAL A   3       2.941 -18.756  33.349  0.00  0.00    +0.002 C 
ATOM     50  CG1 VAL A   3       2.534 -20.071  31.285  0.00  0.00    +0.002 C 
ENDBRANCH  27  48
ENDBRANCH   1  27
TORSDOF 22
REMARK  Name = ../refined-set-2016/3ekp/3ekp_pocket.pdb
REMARK  229 active torsions:
REMARK  status: ('A' for Active; 'I' for Inactive)
REMARK    1  A    between atoms: _1  and  _3
REMARK    2  A    between atoms: _3  and  _4
REMARK    3  A    between atoms: _3  and  _6
REMARK    4  A    between atoms: _6  and  _7
REMARK    5  A    between atoms: _7  and  _8
REMARK    6  A    between atoms: _8  and  _9
REMARK    7  A    between atoms: _18  and  _20
REMARK    8  A    between atoms: _20  and  _21
REMARK    9  A    between atoms: _20  and  _23
REMARK   10  A    between atoms: _23  and  _24
REMARK   11  A    between atoms: _27  and  _29
REMARK   12  A    between atoms: _29  and  _30
REMARK   13  A    between atoms: _29  and  _32
REMARK   14  A    between atoms: _32  and  _33
REMARK   15  A    between atoms: _36  and  _38
REMARK   16  A    between atoms: _38  and  _39
REMARK   17  A    between atoms: _38  and  _41
REMARK   18  A    between atoms: _41  and  _42
REMARK   19  A    between atoms: _45  and  _47
REMARK   20  A    between atoms: _47  and  _48
REMARK   21  A    between atoms: _47  and  _50
REMARK   22  A    between atoms: _50  and  _51
REMARK   23  A    between atoms: _54  and  _56
REMARK   24  A    between atoms: _56  and  _57
REMARK   25  A    between atoms: _59  and  _61
REMARK   26  A    between atoms: _61  and  _62
REMARK   27  A    between atoms: _65  and  _67
REMARK   28  A    between atoms: _67  and  _68
REMARK   29  A    between atoms: _67  and  _70
REMARK   30  A    between atoms: _70  and  _71
REMARK   31  A    between atoms: _74  and  _76
REMARK   32  A    between atoms: _76  and  _77
REMARK   33  A    between atoms: _76  and  _79
REMARK   34  A    between atoms: _79  and  _80
REMARK   35  A    between atoms: _83  and  _85
REMARK   36  A    between atoms: _85  and  _86
REMARK   37  A    between atoms: _85  and  _88
REMARK   38  A    between atoms: _88  and  _89
REMARK   39  A    between atoms: _92  and  _94
REMARK   40  A    between atoms: _94  and  _95
REMARK   41  A    between atoms: _94  and  _97
REMARK   42  A    between atoms: _100  and  _102
REMARK   43  A    between atoms: _102  and  _103
REMARK   44  A    between atoms: _102  and  _105
REMARK   45  A    between atoms: _105  and  _106
REMARK   46  A    between atoms: _109  and  _111
REMARK   47  A    between atoms: _111  and  _112
REMARK   48  A    between atoms: _111  and  _114
REMARK   49  A    between atoms: _114  and  _115
REMARK   50  A    between atoms: _115  and  _116
REMARK   51  A    between atoms: _118  and  _120
REMARK   52  A    between atoms: _120  and  _121
REMARK   53  A    between atoms: _120  and  _123
REMARK   54  A    between atoms: _123  and  _124
REMARK   55  A    between atoms: _127  and  _129
REMARK   56  A    between atoms: _129  and  _130
REMARK   57  A    between atoms: _129  and  _132
REMARK   58  A    between atoms: _135  and  _137
REMARK   59  A    between atoms: _137  and  _138
REMARK   60  A    between atoms: _140  and  _142
REMARK   61  A    between atoms: _142  and  _143
REMARK   62  A    between atoms: _142  and  _145
REMARK   63  A    between atoms: _145  and  _146
REMARK   64  A    between atoms: _149  and  _151
REMARK   65  A    between atoms: _151  and  _152
REMARK   66  A    between atoms: _154  and  _156
REMARK   67  A    between atoms: _156  and  _157
REMARK   68  A    between atoms: _159  and  _161
REMARK   69  A    between atoms: _161  and  _162
REMARK   70  A    between atoms: _161  and  _164
REMARK   71  A    between atoms: _167  and  _169
REMARK   72  A    between atoms: _169  and  _170
REMARK   73  A    between atoms: _169  and  _172
REMARK   74  A    between atoms: _175  and  _177
REMARK   75  A    between atoms: _177  and  _178
REMARK   76  A    between atoms: _177  and  _180
REMARK   77  A    between atoms: _180  and  _181
REMARK   78  A    between atoms: _184  and  _186
REMARK   79  A    between atoms: _186  and  _187
REMARK   80  A    between atoms: _186  and  _189
REMARK   81  A    between atoms: _189  and  _190
REMARK   82  A    between atoms: _194  and  _195
REMARK   83  A    between atoms: _200  and  _202
REMARK   84  A    between atoms: _202  and  _203
REMARK   85  A    between atoms: _206  and  _208
REMARK   86  A    between atoms: _208  and  _209
REMARK   87  A    between atoms: _208  and  _211
REMARK   88  A    between atoms: _211  and  _212
REMARK   89  A    between atoms: _217  and  _219
REMARK   90  A    between atoms: _219  and  _220
REMARK   91  A    between atoms: _219  and  _222
REMARK   92  A    between atoms: _222  and  _223
REMARK   93  A    between atoms: _226  and  _228
REMARK   94  A    between atoms: _228  and  _229
REMARK   95  A    between atoms: _228  and  _231
REMARK   96  A    between atoms: _231  and  _232
REMARK   97  A    between atoms: _235  and  _237
REMARK   98  A    between atoms: _237  and  _238
REMARK   99  A    between atoms: _240  and  _242
REMARK  100  A    between atoms: _242  and  _243
REMARK  101  A    between atoms: _242  and  _245
REMARK  102  A    between atoms: _245  and  _246
REMARK  103  A    between atoms: _246  and  _247
REMARK  104  A    between atoms: _247  and  _248
REMARK  105  A    between atoms: _257  and  _259
REMARK  106  A    between atoms: _259  and  _260
REMARK  107  A    between atoms: _259  and  _262
REMARK  108  A    between atoms: _262  and  _263
REMARK  109  A    between atoms: _268  and  _270
REMARK  110  A    between atoms: _270  and  _271
REMARK  111  A    between atoms: _270  and  _273
REMARK  112  A    between atoms: _273  and  _274
REMARK  113  A    between atoms: _274  and  _275
REMARK  114  A    between atoms: _275  and  _276
REMARK  115  A    between atoms: _285  and  _287
REMARK  116  A    between atoms: _287  and  _288
REMARK  117  A    between atoms: _287  and  _290
REMARK  118  A    between atoms: _290  and  _291
REMARK  119  A    between atoms: _294  and  _296
REMARK  120  A    between atoms: _296  and  _297
REMARK  121  A    between atoms: _296  and  _299
REMARK  122  A    between atoms: _299  and  _300
REMARK  123  A    between atoms: _303  and  _305
REMARK  124  A    between atoms: _305  and  _306
REMARK  125  A    between atoms: _305  and  _308
REMARK  126  A    between atoms: _308  and  _309
REMARK  127  A    between atoms: _312  and  _314
REMARK  128  A    between atoms: _314  and  _315
REMARK  129  A    between atoms: _314  and  _317
REMARK  130  A    between atoms: _317  and  _318
REMARK  131  A    between atoms: _321  and  _323
REMARK  132  A    between atoms: _323  and  _324
REMARK  133  A    between atoms: _326  and  _328
REMARK  134  A    between atoms: _328  and  _329
REMARK  135  A    between atoms: _332  and  _334
REMARK  136  A    between atoms: _334  and  _335
REMARK  137  A    between atoms: _334  and  _337
REMARK  138  A    between atoms: _337  and  _338
REMARK  139  A    between atoms: _341  and  _343
REMARK  140  A    between atoms: _343  and  _344
REMARK  141  A    between atoms: _343  and  _346
REMARK  142  A    between atoms: _346  and  _347
REMARK  143  A    between atoms: _350  and  _352
REMARK  144  A    between atoms: _352  and  _353
REMARK  145  A    between atoms: _352  and  _355
REMARK  146  A    between atoms: _355  and  _356
REMARK  147  A    between atoms: _359  and  _361
REMARK  148  A    between atoms: _361  and  _362
REMARK  149  A    between atoms: _361  and  _364
REMARK  150  A    between atoms: _367  and  _369
REMARK  151  A    between atoms: _369  and  _370
REMARK  152  A    between atoms: _369  and  _372
REMARK  153  A    between atoms: _372  and  _373
REMARK  154  A    between atoms: _376  and  _378
REMARK  155  A    between atoms: _378  and  _379
REMARK  156  A    between atoms: _378  and  _381
REMARK  157  A    between atoms: _381  and  _382
REMARK  158  A    between atoms: _382  and  _383
REMARK  159  A    between atoms: _386  and  _388
REMARK  160  A    between atoms: _388  and  _389
REMARK  161  A    between atoms: _388  and  _391
REMARK  162  A    between atoms: _391  and  _392
REMARK  163  A    between atoms: _392  and  _393
REMARK  164  A    between atoms: _393  and  _394
REMARK  165  A    between atoms: _394  and  _395
REMARK  166  A    between atoms: _399  and  _401
REMARK  167  A    between atoms: _401  and  _402
REMARK  168  A    between atoms: _401  and  _404
REMARK  169  A    between atoms: _404  and  _405
REMARK  170  A    between atoms: _405  and  _406
REMARK  171  A    between atoms: _408  and  _410
REMARK  172  A    between atoms: _410  and  _411
REMARK  173  A    between atoms: _410  and  _413
REMARK  174  A    between atoms: _413  and  _414
REMARK  175  A    between atoms: _417  and  _419
REMARK  176  A    between atoms: _419  and  _420
REMARK  177  A    between atoms: _419  and  _422
REMARK  178  A    between atoms: _425  and  _427
REMARK  179  A    between atoms: _427  and  _428
REMARK  180  A    between atoms: _430  and  _432
REMARK  181  A    between atoms: _432  and  _433
REMARK  182  A    between atoms: _432  and  _435
REMARK  183  A    between atoms: _435  and  _436
REMARK  184  A    between atoms: _439  and  _441
REMARK  185  A    between atoms: _441  and  _442
REMARK  186  A    between atoms: _444  and  _446
REMARK  187  A    between atoms: _446  and  _447
REMARK  188  A    between atoms: _449  and  _451
REMARK  189  A    between atoms: _451  and  _452
REMARK  190  A    between atoms: _451  and  _454
REMARK  191  A    between atoms: _457  and  _459
REMARK  192  A    between atoms: _459  and  _460
REMARK  193  A    between atoms: _459  and  _462
REMARK  194  A    between atoms: _465  and  _467
REMARK  195  A    between atoms: _467  and  _468
REMARK  196  A    between atoms: _467  and  _470
REMARK  197  A    between atoms: _470  and  _471
REMARK  198  A    between atoms: _475  and  _476
REMARK  199  A    between atoms: _481  and  _483
REMARK  200  A    between atoms: _483  and  _484
REMARK  201  A    between atoms: _483  and  _486
REMARK  202  A    between atoms: _486  and  _487
REMARK  203  A    between atoms: _491  and  _492
REMARK  204  A    between atoms: _497  and  _499
REMARK  205  A    between atoms: _499  and  _500
REMARK  206  A    between atoms: _503  and  _505
REMARK  207  A    between atoms: _505  and  _506
REMARK  208  A    between atoms: _505  and  _508
REMARK  209  A    between atoms: _508  and  _509
REMARK  210  A    between atoms: _514  and  _516
REMARK  211  A    between atoms: _516  and  _517
REMARK  212  A    between atoms: _516  and  _519
REMARK  213  A    between atoms: _519  and  _520
REMARK  214  A    between atoms: _523  and  _525
REMARK  215  A    between atoms: _525  and  _526
REMARK  216  A    between atoms: _525  and  _528
REMARK  217  A    between atoms: _528  and  _529
REMARK  218  A    between atoms: _532  and  _534
REMARK  219  A    between atoms: _534  and  _535
REMARK  220  A    between atoms: _537  and  _539
REMARK  221  A    between atoms: _539  and  _540
REMARK  222  A    between atoms: _539  and  _542
REMARK  223  A    between atoms: _542  and  _543
REMARK  224  A    between atoms: _543  and  _544
REMARK  225  A    between atoms: _544  and  _545
REMARK  226  A    between atoms: _554  and  _556
REMARK  227  A    between atoms: _556  and  _557
REMARK  228  A    between atoms: _556  and  _559
REMARK  229  A    between atoms: _559  and  _560
REMARK                            x       y       z     vdW  Elec       q    Type
REMARK                         _______ _______ _______ _____ _____    ______ ____
ROOT
ATOM      1  CA  VAL A   1       6.159 -13.816  28.278  0.00  0.00    +0.133 C 
ENDROOT
BRANCH   1   2
ATOM      2  CB  VAL A   1       7.613 -14.120  28.699  0.00  0.00    +0.023 C 
ATOM      3  CG2 VAL A   1       7.800 -13.803  30.197  0.00  0.00    +0.002 C 
ATOM      4  CG1 VAL A   1       8.591 -13.329  27.846  0.00  0.00    +0.002 C 
ENDBRANCH   1   2
BRANCH   1   5
ATOM      5  N   VAL A   1       5.226 -14.516  29.149  0.00  0.00    -0.239 NA
ATOM      6  H   VAL A   1       5.104 -15.543  29.041  0.00  0.00    +0.142 HD
ENDBRANCH   1   5
BRANCH   1   7
ATOM      7  C   VAL A   1       5.937 -14.206  26.815  0.00  0.00    +0.224 C 
ATOM      8  O   VAL A   1       5.824 -15.397  26.502  0.00  0.00    -0.287 OA
ENDBRANCH   1   7
TORSDOF 3
REMARK  Name = ../refined-set-2016/3ekp/3ekp_pocket.pdb
REMARK  229 active torsions:
REMARK  status: ('A' for Active; 'I' for Inactive)
REMARK    1  A    between atoms: _1  and  _3
REMARK    2  A    between atoms: _3  and  _4
REMARK    3  A    between atoms: _3  and  _6
REMARK    4  A    between atoms: _6  and  _7
REMARK    5  A    between atoms: _7  and  _8
REMARK    6  A    between atoms: _8  and  _9
REMARK    7  A    between atoms: _18  and  _20
REMARK    8  A    between atoms: _20  and  _21
REMARK    9  A    between atoms: _20  and  _23
REMARK   10  A    between atoms: _23  and  _24
REMARK   11  A    between atoms: _27  and  _29
REMARK   12  A    between atoms: _29  and  _30
REMARK   13  A    between atoms: _29  and  _32
REMARK   14  A    between atoms: _32  and  _33
REMARK   15  A    between atoms: _36  and  _38
REMARK   16  A    between atoms: _38  and  _39
REMARK   17  A    between atoms: _38  and  _41
REMARK   18  A    between atoms: _41  and  _42
REMARK   19  A    between atoms: _45  and  _47
REMARK   20  A    between atoms: _47  and  _48
REMARK   21  A    between atoms: _47  and  _50
REMARK   22  A    between atoms: _50  and  _51
REMARK   23  A    between atoms: _54  and  _56
REMARK   24  A    between atoms: _56  and  _57
REMARK   25  A    between atoms: _59  and  _61
REMARK   26  A    between atoms: _61  and  _62
REMARK   27  A    between atoms: _65  and  _67
REMARK   28  A    between atoms: _67  and  _68
REMARK   29  A    between atoms: _67  and  _70
REMARK   30  A    between atoms: _70  and  _71
REMARK   31  A    between atoms: _74  and  _76
REMARK   32  A    between atoms: _76  and  _77
REMARK   33  A    between atoms: _76  and  _79
REMARK   34  A    between atoms: _79  and  _80
REMARK   35  A    between atoms: _83  and  _85
REMARK   36  A    between atoms: _85  and  _86
REMARK   37  A    between atoms: _85  and  _88
REMARK   38  A    between atoms: _88  and  _89
REMARK   39  A    between atoms: _92  and  _94
REMARK   40  A    between atoms: _94  and  _95
REMARK   41  A    between atoms: _94  and  _97
REMARK   42  A    between atoms: _100  and  _102
REMARK   43  A    between atoms: _102  and  _103
REMARK   44  A    between atoms: _102  and  _105
REMARK   45  A    between atoms: _105  and  _106
REMARK   46  A    between atoms: _109  and  _111
REMARK   47  A    between atoms: _111  and  _112
REMARK   48  A    between atoms: _111  and  _114
REMARK   49  A    between atoms: _114  and  _115
REMARK   50  A    between atoms: _115  and  _116
REMARK   51  A    between atoms: _118  and  _120
REMARK   52  A    between atoms: _120  and  _121
REMARK   53  A    between atoms: _120  and  _123
REMARK   54  A    between atoms: _123  and  _124
REMARK   55  A    between atoms: _127  and  _129
REMARK   56  A    between atoms: _129  and  _130
REMARK   57  A    between atoms: _129  and  _132
REMARK   58  A    between atoms: _135  and  _137
REMARK   59  A    between atoms: _137  and  _138
REMARK   60  A    between atoms: _140  and  _142
REMARK   61  A    between atoms: _142  and  _143
REMARK   62  A    between atoms: _142  and  _145
REMARK   63  A    between atoms: _145  and  _146
REMARK   64  A    between atoms: _149  and  _151
REMARK   65  A    between atoms: _151  and  _152
REMARK   66  A    between atoms: _154  and  _156
REMARK   67  A    between atoms: _156  and  _157
REMARK   68  A    between atoms: _159  and  _161
REMARK   69  A    between atoms: _161  and  _162
REMARK   70  A    between atoms: _161  and  _164
REMARK   71  A    between atoms: _167  and  _169
REMARK   72  A    between atoms: _169  and  _170
REMARK   73  A    between atoms: _169  and  _172
REMARK   74  A    between atoms: _175  and  _177
REMARK   75  A    between atoms: _177  and  _178
REMARK   76  A    between atoms: _177  and  _180
REMARK   77  A    between atoms: _180  and  _181
REMARK   78  A    between atoms: _184  and  _186
REMARK   79  A    between atoms: _186  and  _187
REMARK   80  A    between atoms: _186  and  _189
REMARK   81  A    between atoms: _189  and  _190
REMARK   82  A    between atoms: _194  and  _195
REMARK   83  A    between atoms: _200  and  _202
REMARK   84  A    between atoms: _202  and  _203
REMARK   85  A    between atoms: _206  and  _208
REMARK   86  A    between atoms: _208  and  _209
REMARK   87  A    between atoms: _208  and  _211
REMARK   88  A    between atoms: _211  and  _212
REMARK   89  A    between atoms: _217  and  _219
REMARK   90  A    between atoms: _219  and  _220
REMARK   91  A    between atoms: _219  and  _222
REMARK   92  A    between atoms: _222  and  _223
REMARK   93  A    between atoms: _226  and  _228
REMARK   94  A    between atoms: _228  and  _229
REMARK   95  A    between atoms: _228  and  _231
REMARK   96  A    between atoms: _231  and  _232
REMARK   97  A    between atoms: _235  and  _237
REMARK   98  A    between atoms: _237  and  _238
REMARK   99  A    between atoms: _240  and  _242
REMARK  100  A    between atoms: _242  and  _243
REMARK  101  A    between atoms: _242  and  _245
REMARK  102  A    between atoms: _245  and  _246
REMARK  103  A    between atoms: _246  and  _247
REMARK  104  A    between atoms: _247  and  _248
REMARK  105  A    between atoms: _257  and  _259
REMARK  106  A    between atoms: _259  and  _260
REMARK  107  A    between atoms: _259  and  _262
REMARK  108  A    between atoms: _262  and  _263
REMARK  109  A    between atoms: _268  and  _270
REMARK  110  A    between atoms: _270  and  _271
REMARK  111  A    between atoms: _270  and  _273
REMARK  112  A    between atoms: _273  and  _274
REMARK  113  A    between atoms: _274  and  _275
REMARK  114  A    between atoms: _275  and  _276
REMARK  115  A    between atoms: _285  and  _287
REMARK  116  A    between atoms: _287  and  _288
REMARK  117  A    between atoms: _287  and  _290
REMARK  118  A    between atoms: _290  and  _291
REMARK  119  A    between atoms: _294  and  _296
REMARK  120  A    between atoms: _296  and  _297
REMARK  121  A    between atoms: _296  and  _299
REMARK  122  A    between atoms: _299  and  _300
REMARK  123  A    between atoms: _303  and  _305
REMARK  124  A    between atoms: _305  and  _306
REMARK  125  A    between atoms: _305  and  _308
REMARK  126  A    between atoms: _308  and  _309
REMARK  127  A    between atoms: _312  and  _314
REMARK  128  A    between atoms: _314  and  _315
REMARK  129  A    between atoms: _314  and  _317
REMARK  130  A    between atoms: _317  and  _318
REMARK  131  A    between atoms: _321  and  _323
REMARK  132  A    between atoms: _323  and  _324
REMARK  133  A    between atoms: _326  and  _328
REMARK  134  A    between atoms: _328  and  _329
REMARK  135  A    between atoms: _332  and  _334
REMARK  136  A    between atoms: _334  and  _335
REMARK  137  A    between atoms: _334  and  _337
REMARK  138  A    between atoms: _337  and  _338
REMARK  139  A    between atoms: _341  and  _343
REMARK  140  A    between atoms: _343  and  _344
REMARK  141  A    between atoms: _343  and  _346
REMARK  142  A    between atoms: _346  and  _347
REMARK  143  A    between atoms: _350  and  _352
REMARK  144  A    between atoms: _352  and  _353
REMARK  145  A    between atoms: _352  and  _355
REMARK  146  A    between atoms: _355  and  _356
REMARK  147  A    between atoms: _359  and  _361
REMARK  148  A    between atoms: _361  and  _362
REMARK  149  A    between atoms: _361  and  _364
REMARK  150  A    between atoms: _367  and  _369
REMARK  151  A    between atoms: _369  and  _370
REMARK  152  A    between atoms: _369  and  _372
REMARK  153  A    between atoms: _372  and  _373
REMARK  154  A    between atoms: _376  and  _378
REMARK  155  A    between atoms: _378  and  _379
REMARK  156  A    between atoms: _378  and  _381
REMARK  157  A    between atoms: _381  and  _382
REMARK  158  A    between atoms: _382  and  _383
REMARK  159  A    between atoms: _386  and  _388
REMARK  160  A    between atoms: _388  and  _389
REMARK  161  A    between atoms: _388  and  _391
REMARK  162  A    between atoms: _391  and  _392
REMARK  163  A    between atoms: _392  and  _393
REMARK  164  A    between atoms: _393  and  _394
REMARK  165  A    between atoms: _394  and  _395
REMARK  166  A    between atoms: _399  and  _401
REMARK  167  A    between atoms: _401  and  _402
REMARK  168  A    between atoms: _401  and  _404
REMARK  169  A    between atoms: _404  and  _405
REMARK  170  A    between atoms: _405  and  _406
REMARK  171  A    between atoms: _408  and  _410
REMARK  172  A    between atoms: _410  and  _411
REMARK  173  A    between atoms: _410  and  _413
REMARK  174  A    between atoms: _413  and  _414
REMARK  175  A    between atoms: _417  and  _419
REMARK  176  A    between atoms: _419  and  _420
REMARK  177  A    between atoms: _419  and  _422
REMARK  178  A    between atoms: _425  and  _427
REMARK  179  A    between atoms: _427  and  _428
REMARK  180  A    between atoms: _430  and  _432
REMARK  181  A    between atoms: _432  and  _433
REMARK  182  A    between atoms: _432  and  _435
REMARK  183  A    between atoms: _435  and  _436
REMARK  184  A    between atoms: _439  and  _441
REMARK  185  A    between atoms: _441  and  _442
REMARK  186  A    between atoms: _444  and  _446
REMARK  187  A    between atoms: _446  and  _447
REMARK  188  A    between atoms: _449  and  _451
REMARK  189  A    between atoms: _451  and  _452
REMARK  190  A    between atoms: _451  and  _454
REMARK  191  A    between atoms: _457  and  _459
REMARK  192  A    between atoms: _459  and  _460
REMARK  193  A    between atoms: _459  and  _462
REMARK  194  A    between atoms: _465  and  _467
REMARK  195  A    between atoms: _467  and  _468
REMARK  196  A    between atoms: _467  and  _470
REMARK  197  A    between atoms: _470  and  _471
REMARK  198  A    between atoms: _475  and  _476
REMARK  199  A    between atoms: _481  and  _483
REMARK  200  A    between atoms: _483  and  _484
REMARK  201  A    between atoms: _483  and  _486
REMARK  202  A    between atoms: _486  and  _487
REMARK  203  A    between atoms: _491  and  _492
REMARK  204  A    between atoms: _497  and  _499
REMARK  205  A    between atoms: _499  and  _500
REMARK  206  A    between atoms: _503  and  _505
REMARK  207  A    between atoms: _505  and  _506
REMARK  208  A    between atoms: _505  and  _508
REMARK  209  A    between atoms: _508  and  _509
REMARK  210  A    between atoms: _514  and  _516
REMARK  211  A    between atoms: _516  and  _517
REMARK  212  A    between atoms: _516  and  _519
REMARK  213  A    between atoms: _519  and  _520
REMARK  214  A    between atoms: _523  and  _525
REMARK  215  A    between atoms: _525  and  _526
REMARK  216  A    between atoms: _525  and  _528
REMARK  217  A    between atoms: _528  and  _529
REMARK  218  A    between atoms: _532  and  _534
REMARK  219  A    between atoms: _534  and  _535
REMARK  220  A    between atoms: _537  and  _539
REMARK  221  A    between atoms: _539  and  _540
REMARK  222  A    between atoms: _539  and  _542
REMARK  223  A    between atoms: _542  and  _543
REMARK  224  A    between atoms: _543  and  _544
REMARK  225  A    between atoms: _544  and  _545
REMARK  226  A    between atoms: _554  and  _556
REMARK  227  A    between atoms: _556  and  _557
REMARK  228  A    between atoms: _556  and  _559
REMARK  229  A    between atoms: _559  and  _560
REMARK                            x       y       z     vdW  Elec       q    Type
REMARK                         _______ _______ _______ _____ _____    ______ ____
ROOT
ATOM      1  CA  VAL A   1       8.366 -15.080  22.403  0.00  0.00    +0.133 C 
ENDROOT
BRANCH   1   2
ATOM      2  CB  VAL A   1       9.092 -16.258  23.136  0.00  0.00    +0.023 C 
ATOM      3  CG2 VAL A   1       9.535 -15.839  24.524  0.00  0.00    +0.002 C 
ATOM      4  CG1 VAL A   1       8.215 -17.471  23.209  0.00  0.00    +0.002 C 
ENDBRANCH   1   2
BRANCH   1   5
ATOM      5  N   VAL A   1       7.125 -14.739  23.071  0.00  0.00    -0.239 NA
ATOM      6  H   VAL A   1       6.294 -15.354  22.957  0.00  0.00    +0.142 HD
ENDBRANCH   1   5
BRANCH   1   7
ATOM      7  C   VAL A   1       8.129 -15.424  20.926  0.00  0.00    +0.224 C 
ATOM      8  O   VAL A   1       7.008 -15.669  20.505  0.00  0.00    -0.287 OA
ENDBRANCH   1   7
TORSDOF 3
REMARK  Name = ../refined-set-2016/3ekp/3ekp_pocket.pdb
REMARK  229 active torsions:
REMARK  status: ('A' for Active; 'I' for Inactive)
REMARK    1  A    between atoms: _1  and  _3
REMARK    2  A    between atoms: _3  and  _4
REMARK    3  A    between atoms: _3  and  _6
REMARK    4  A    between atoms: _6  and  _7
REMARK    5  A    between atoms: _7  and  _8
REMARK    6  A    between atoms: _8  and  _9
REMARK    7  A    between atoms: _18  and  _20
REMARK    8  A    between atoms: _20  and  _21
REMARK    9  A    between atoms: _20  and  _23
REMARK   10  A    between atoms: _23  and  _24
REMARK   11  A    between atoms: _27  and  _29
REMARK   12  A    between atoms: _29  and  _30
REMARK   13  A    between atoms: _29  and  _32
REMARK   14  A    between atoms: _32  and  _33
REMARK   15  A    between atoms: _36  and  _38
REMARK   16  A    between atoms: _38  and  _39
REMARK   17  A    between atoms: _38  and  _41
REMARK   18  A    between atoms: _41  and  _42
REMARK   19  A    between atoms: _45  and  _47
REMARK   20  A    between atoms: _47  and  _48
REMARK   21  A    between atoms: _47  and  _50
REMARK   22  A    between atoms: _50  and  _51
REMARK   23  A    between atoms: _54  and  _56
REMARK   24  A    between atoms: _56  and  _57
REMARK   25  A    between atoms: _59  and  _61
REMARK   26  A    between atoms: _61  and  _62
REMARK   27  A    between atoms: _65  and  _67
REMARK   28  A    between atoms: _67  and  _68
REMARK   29  A    between atoms: _67  and  _70
REMARK   30  A    between atoms: _70  and  _71
REMARK   31  A    between atoms: _74  and  _76
REMARK   32  A    between atoms: _76  and  _77
REMARK   33  A    between atoms: _76  and  _79
REMARK   34  A    between atoms: _79  and  _80
REMARK   35  A    between atoms: _83  and  _85
REMARK   36  A    between atoms: _85  and  _86
REMARK   37  A    between atoms: _85  and  _88
REMARK   38  A    between atoms: _88  and  _89
REMARK   39  A    between atoms: _92  and  _94
REMARK   40  A    between atoms: _94  and  _95
REMARK   41  A    between atoms: _94  and  _97
REMARK   42  A    between atoms: _100  and  _102
REMARK   43  A    between atoms: _102  and  _103
REMARK   44  A    between atoms: _102  and  _105
REMARK   45  A    between atoms: _105  and  _106
REMARK   46  A    between atoms: _109  and  _111
REMARK   47  A    between atoms: _111  and  _112
REMARK   48  A    between atoms: _111  and  _114
REMARK   49  A    between atoms: _114  and  _115
REMARK   50  A    between atoms: _115  and  _116
REMARK   51  A    between atoms: _118  and  _120
REMARK   52  A    between atoms: _120  and  _121
REMARK   53  A    between atoms: _120  and  _123
REMARK   54  A    between atoms: _123  and  _124
REMARK   55  A    between atoms: _127  and  _129
REMARK   56  A    between atoms: _129  and  _130
REMARK   57  A    between atoms: _129  and  _132
REMARK   58  A    between atoms: _135  and  _137
REMARK   59  A    between atoms: _137  and  _138
REMARK   60  A    between atoms: _140  and  _142
REMARK   61  A    between atoms: _142  and  _143
REMARK   62  A    between atoms: _142  and  _145
REMARK   63  A    between atoms: _145  and  _146
REMARK   64  A    between atoms: _149  and  _151
REMARK   65  A    between atoms: _151  and  _152
REMARK   66  A    between atoms: _154  and  _156
REMARK   67  A    between atoms: _156  and  _157
REMARK   68  A    between atoms: _159  and  _161
REMARK   69  A    between atoms: _161  and  _162
REMARK   70  A    between atoms: _161  and  _164
REMARK   71  A    between atoms: _167  and  _169
REMARK   72  A    between atoms: _169  and  _170
REMARK   73  A    between atoms: _169  and  _172
REMARK   74  A    between atoms: _175  and  _177
REMARK   75  A    between atoms: _177  and  _178
REMARK   76  A    between atoms: _177  and  _180
REMARK   77  A    between atoms: _180  and  _181
REMARK   78  A    between atoms: _184  and  _186
REMARK   79  A    between atoms: _186  and  _187
REMARK   80  A    between atoms: _186  and  _189
REMARK   81  A    between atoms: _189  and  _190
REMARK   82  A    between atoms: _194  and  _195
REMARK   83  A    between atoms: _200  and  _202
REMARK   84  A    between atoms: _202  and  _203
REMARK   85  A    between atoms: _206  and  _208
REMARK   86  A    between atoms: _208  and  _209
REMARK   87  A    between atoms: _208  and  _211
REMARK   88  A    between atoms: _211  and  _212
REMARK   89  A    between atoms: _217  and  _219
REMARK   90  A    between atoms: _219  and  _220
REMARK   91  A    between atoms: _219  and  _222
REMARK   92  A    between atoms: _222  and  _223
REMARK   93  A    between atoms: _226  and  _228
REMARK   94  A    between atoms: _228  and  _229
REMARK   95  A    between atoms: _228  and  _231
REMARK   96  A    between atoms: _231  and  _232
REMARK   97  A    between atoms: _235  and  _237
REMARK   98  A    between atoms: _237  and  _238
REMARK   99  A    between atoms: _240  and  _242
REMARK  100  A    between atoms: _242  and  _243
REMARK  101  A    between atoms: _242  and  _245
REMARK  102  A    between atoms: _245  and  _246
REMARK  103  A    between atoms: _246  and  _247
REMARK  104  A    between atoms: _247  and  _248
REMARK  105  A    between atoms: _257  and  _259
REMARK  106  A    between atoms: _259  and  _260
REMARK  107  A    between atoms: _259  and  _262
REMARK  108  A    between atoms: _262  and  _263
REMARK  109  A    between atoms: _268  and  _270
REMARK  110  A    between atoms: _270  and  _271
REMARK  111  A    between atoms: _270  and  _273
REMARK  112  A    between atoms: _273  and  _274
REMARK  113  A    between atoms: _274  and  _275
REMARK  114  A    between atoms: _275  and  _276
REMARK  115  A    between atoms: _285  and  _287
REMARK  116  A    between atoms: _287  and  _288
REMARK  117  A    between atoms: _287  and  _290
REMARK  118  A    between atoms: _290  and  _291
REMARK  119  A    between atoms: _294  and  _296
REMARK  120  A    between atoms: _296  and  _297
REMARK  121  A    between atoms: _296  and  _299
REMARK  122  A    between atoms: _299  and  _300
REMARK  123  A    between atoms: _303  and  _305
REMARK  124  A    between atoms: _305  and  _306
REMARK  125  A    between atoms: _305  and  _308
REMARK  126  A    between atoms: _308  and  _309
REMARK  127  A    between atoms: _312  and  _314
REMARK  128  A    between atoms: _314  and  _315
REMARK  129  A    between atoms: _314  and  _317
REMARK  130  A    between atoms: _317  and  _318
REMARK  131  A    between atoms: _321  and  _323
REMARK  132  A    between atoms: _323  and  _324
REMARK  133  A    between atoms: _326  and  _328
REMARK  134  A    between atoms: _328  and  _329
REMARK  135  A    between atoms: _332  and  _334
REMARK  136  A    between atoms: _334  and  _335
REMARK  137  A    between atoms: _334  and  _337
REMARK  138  A    between atoms: _337  and  _338
REMARK  139  A    between atoms: _341  and  _343
REMARK  140  A    between atoms: _343  and  _344
REMARK  141  A    between atoms: _343  and  _346
REMARK  142  A    between atoms: _346  and  _347
REMARK  143  A    between atoms: _350  and  _352
REMARK  144  A    between atoms: _352  and  _353
REMARK  145  A    between atoms: _352  and  _355
REMARK  146  A    between atoms: _355  and  _356
REMARK  147  A    between atoms: _359  and  _361
REMARK  148  A    between atoms: _361  and  _362
REMARK  149  A    between atoms: _361  and  _364
REMARK  150  A    between atoms: _367  and  _369
REMARK  151  A    between atoms: _369  and  _370
REMARK  152  A    between atoms: _369  and  _372
REMARK  153  A    between atoms: _372  and  _373
REMARK  154  A    between atoms: _376  and  _378
REMARK  155  A    between atoms: _378  and  _379
REMARK  156  A    between atoms: _378  and  _381
REMARK  157  A    between atoms: _381  and  _382
REMARK  158  A    between atoms: _382  and  _383
REMARK  159  A    between atoms: _386  and  _388
REMARK  160  A    between atoms: _388  and  _389
REMARK  161  A    between atoms: _388  and  _391
REMARK  162  A    between atoms: _391  and  _392
REMARK  163  A    between atoms: _392  and  _393
REMARK  164  A    between atoms: _393  and  _394
REMARK  165  A    between atoms: _394  and  _395
REMARK  166  A    between atoms: _399  and  _401
REMARK  167  A    between atoms: _401  and  _402
REMARK  168  A    between atoms: _401  and  _404
REMARK  169  A    between atoms: _404  and  _405
REMARK  170  A    between atoms: _405  and  _406
REMARK  171  A    between atoms: _408  and  _410
REMARK  172  A    between atoms: _410  and  _411
REMARK  173  A    between atoms: _410  and  _413
REMARK  174  A    between atoms: _413  and  _414
REMARK  175  A    between atoms: _417  and  _419
REMARK  176  A    between atoms: _419  and  _420
REMARK  177  A    between atoms: _419  and  _422
REMARK  178  A    between atoms: _425  and  _427
REMARK  179  A    between atoms: _427  and  _428
REMARK  180  A    between atoms: _430  and  _432
REMARK  181  A    between atoms: _432  and  _433
REMARK  182  A    between atoms: _432  and  _435
REMARK  183  A    between atoms: _435  and  _436
REMARK  184  A    between atoms: _439  and  _441
REMARK  185  A    between atoms: _441  and  _442
REMARK  186  A    between atoms: _444  and  _446
REMARK  187  A    between atoms: _446  and  _447
REMARK  188  A    between atoms: _449  and  _451
REMARK  189  A    between atoms: _451  and  _452
REMARK  190  A    between atoms: _451  and  _454
REMARK  191  A    between atoms: _457  and  _459
REMARK  192  A    between atoms: _459  and  _460
REMARK  193  A    between atoms: _459  and  _462
REMARK  194  A    between atoms: _465  and  _467
REMARK  195  A    between atoms: _467  and  _468
REMARK  196  A    between atoms: _467  and  _470
REMARK  197  A    between atoms: _470  and  _471
REMARK  198  A    between atoms: _475  and  _476
REMARK  199  A    between atoms: _481  and  _483
REMARK  200  A    between atoms: _483  and  _484
REMARK  201  A    between atoms: _483  and  _486
REMARK  202  A    between atoms: _486  and  _487
REMARK  203  A    between atoms: _491  and  _492
REMARK  204  A    between atoms: _497  and  _499
REMARK  205  A    between atoms: _499  and  _500
REMARK  206  A    between atoms: _503  and  _505
REMARK  207  A    between atoms: _505  and  _506
REMARK  208  A    between atoms: _505  and  _508
REMARK  209  A    between atoms: _508  and  _509
REMARK  210  A    between atoms: _514  and  _516
REMARK  211  A    between atoms: _516  and  _517
REMARK  212  A    between atoms: _516  and  _519
REMARK  213  A    between atoms: _519  and  _520
REMARK  214  A    between atoms: _523  and  _525
REMARK  215  A    between atoms: _525  and  _526
REMARK  216  A    between atoms: _525  and  _528
REMARK  217  A    between atoms: _528  and  _529
REMARK  218  A    between atoms: _532  and  _534
REMARK  219  A    between atoms: _534  and  _535
REMARK  220  A    between atoms: _537  and  _539
REMARK  221  A    between atoms: _539  and  _540
REMARK  222  A    between atoms: _539  and  _542
REMARK  223  A    between atoms: _542  and  _543
REMARK  224  A    between atoms: _543  and  _544
REMARK  225  A    between atoms: _544  and  _545
REMARK  226  A    between atoms: _554  and  _556
REMARK  227  A    between atoms: _556  and  _557
REMARK  228  A    between atoms: _556  and  _559
REMARK  229  A    between atoms: _559  and  _560
REMARK                            x       y       z     vdW  Elec       q    Type
REMARK                         _______ _______ _______ _____ _____    ______ ____
ROOT
ATOM      1  CA  LEU A   1      12.224 -19.684  21.167  0.00  0.00    +0.133 C 
ENDROOT
BRANCH   1   2
ATOM      2  N   LEU A   1      13.006 -20.895  20.960  0.00  0.00    -0.239 NA
ATOM      3  H   LEU A   1      13.367 -21.415  21.785  0.00  0.00    +0.142 HD
ENDBRANCH   1   2
BRANCH   1   4
ATOM      4  C   LEU A   1      13.193 -18.566  21.512  0.00  0.00    +0.224 C 
ATOM      5  O   LEU A   1      14.248 -18.802  22.087  0.00  0.00    -0.287 OA
ENDBRANCH   1   4
BRANCH   1   6
ATOM      6  CB  LEU A   1      11.194 -19.868  22.283  0.00  0.00    +0.025 C 
BRANCH   6   7
ATOM      7  CG  LEU A   1      10.267 -21.089  22.264  0.00  0.00    +0.002 C 
ATOM      8  CD2 LEU A   1       9.516 -21.166  23.581  0.00  0.00    +0.000 C 
ATOM      9  CD1 LEU A   1       9.265 -21.088  21.114  0.00  0.00    +0.000 C 
ENDBRANCH   6   7
ENDBRANCH   1   6
TORSDOF 4
REMARK  Name = ../refined-set-2016/3ekp/3ekp_pocket.pdb
REMARK  229 active torsions:
REMARK  status: ('A' for Active; 'I' for Inactive)
REMARK    1  A    between atoms: _1  and  _3
REMARK    2  A    between atoms: _3  and  _4
REMARK    3  A    between atoms: _3  and  _6
REMARK    4  A    between atoms: _6  and  _7
REMARK    5  A    between atoms: _7  and  _8
REMARK    6  A    between atoms: _8  and  _9
REMARK    7  A    between atoms: _18  and  _20
REMARK    8  A    between atoms: _20  and  _21
REMARK    9  A    between atoms: _20  and  _23
REMARK   10  A    between atoms: _23  and  _24
REMARK   11  A    between atoms: _27  and  _29
REMARK   12  A    between atoms: _29  and  _30
REMARK   13  A    between atoms: _29  and  _32
REMARK   14  A    between atoms: _32  and  _33
REMARK   15  A    between atoms: _36  and  _38
REMARK   16  A    between atoms: _38  and  _39
REMARK   17  A    between atoms: _38  and  _41
REMARK   18  A    between atoms: _41  and  _42
REMARK   19  A    between atoms: _45  and  _47
REMARK   20  A    between atoms: _47  and  _48
REMARK   21  A    between atoms: _47  and  _50
REMARK   22  A    between atoms: _50  and  _51
REMARK   23  A    between atoms: _54  and  _56
REMARK   24  A    between atoms: _56  and  _57
REMARK   25  A    between atoms: _59  and  _61
REMARK   26  A    between atoms: _61  and  _62
REMARK   27  A    between atoms: _65  and  _67
REMARK   28  A    between atoms: _67  and  _68
REMARK   29  A    between atoms: _67  and  _70
REMARK   30  A    between atoms: _70  and  _71
REMARK   31  A    between atoms: _74  and  _76
REMARK   32  A    between atoms: _76  and  _77
REMARK   33  A    between atoms: _76  and  _79
REMARK   34  A    between atoms: _79  and  _80
REMARK   35  A    between atoms: _83  and  _85
REMARK   36  A    between atoms: _85  and  _86
REMARK   37  A    between atoms: _85  and  _88
REMARK   38  A    between atoms: _88  and  _89
REMARK   39  A    between atoms: _92  and  _94
REMARK   40  A    between atoms: _94  and  _95
REMARK   41  A    between atoms: _94  and  _97
REMARK   42  A    between atoms: _100  and  _102
REMARK   43  A    between atoms: _102  and  _103
REMARK   44  A    between atoms: _102  and  _105
REMARK   45  A    between atoms: _105  and  _106
REMARK   46  A    between atoms: _109  and  _111
REMARK   47  A    between atoms: _111  and  _112
REMARK   48  A    between atoms: _111  and  _114
REMARK   49  A    between atoms: _114  and  _115
REMARK   50  A    between atoms: _115  and  _116
REMARK   51  A    between atoms: _118  and  _120
REMARK   52  A    between atoms: _120  and  _121
REMARK   53  A    between atoms: _120  and  _123
REMARK   54  A    between atoms: _123  and  _124
REMARK   55  A    between atoms: _127  and  _129
REMARK   56  A    between atoms: _129  and  _130
REMARK   57  A    between atoms: _129  and  _132
REMARK   58  A    between atoms: _135  and  _137
REMARK   59  A    between atoms: _137  and  _138
REMARK   60  A    between atoms: _140  and  _142
REMARK   61  A    between atoms: _142  and  _143
REMARK   62  A    between atoms: _142  and  _145
REMARK   63  A    between atoms: _145  and  _146
REMARK   64  A    between atoms: _149  and  _151
REMARK   65  A    between atoms: _151  and  _152
REMARK   66  A    between atoms: _154  and  _156
REMARK   67  A    between atoms: _156  and  _157
REMARK   68  A    between atoms: _159  and  _161
REMARK   69  A    between atoms: _161  and  _162
REMARK   70  A    between atoms: _161  and  _164
REMARK   71  A    between atoms: _167  and  _169
REMARK   72  A    between atoms: _169  and  _170
REMARK   73  A    between atoms: _169  and  _172
REMARK   74  A    between atoms: _175  and  _177
REMARK   75  A    between atoms: _177  and  _178
REMARK   76  A    between atoms: _177  and  _180
REMARK   77  A    between atoms: _180  and  _181
REMARK   78  A    between atoms: _184  and  _186
REMARK   79  A    between atoms: _186  and  _187
REMARK   80  A    between atoms: _186  and  _189
REMARK   81  A    between atoms: _189  and  _190
REMARK   82  A    between atoms: _194  and  _195
REMARK   83  A    between atoms: _200  and  _202
REMARK   84  A    between atoms: _202  and  _203
REMARK   85  A    between atoms: _206  and  _208
REMARK   86  A    between atoms: _208  and  _209
REMARK   87  A    between atoms: _208  and  _211
REMARK   88  A    between atoms: _211  and  _212
REMARK   89  A    between atoms: _217  and  _219
REMARK   90  A    between atoms: _219  and  _220
REMARK   91  A    between atoms: _219  and  _222
REMARK   92  A    between atoms: _222  and  _223
REMARK   93  A    between atoms: _226  and  _228
REMARK   94  A    between atoms: _228  and  _229
REMARK   95  A    between atoms: _228  and  _231
REMARK   96  A    between atoms: _231  and  _232
REMARK   97  A    between atoms: _235  and  _237
REMARK   98  A    between atoms: _237  and  _238
REMARK   99  A    between atoms: _240  and  _242
REMARK  100  A    between atoms: _242  and  _243
REMARK  101  A    between atoms: _242  and  _245
REMARK  102  A    between atoms: _245  and  _246
REMARK  103  A    between atoms: _246  and  _247
REMARK  104  A    between atoms: _247  and  _248
REMARK  105  A    between atoms: _257  and  _259
REMARK  106  A    between atoms: _259  and  _260
REMARK  107  A    between atoms: _259  and  _262
REMARK  108  A    between atoms: _262  and  _263
REMARK  109  A    between atoms: _268  and  _270
REMARK  110  A    between atoms: _270  and  _271
REMARK  111  A    between atoms: _270  and  _273
REMARK  112  A    between atoms: _273  and  _274
REMARK  113  A    between atoms: _274  and  _275
REMARK  114  A    between atoms: _275  and  _276
REMARK  115  A    between atoms: _285  and  _287
REMARK  116  A    between atoms: _287  and  _288
REMARK  117  A    between atoms: _287  and  _290
REMARK  118  A    between atoms: _290  and  _291
REMARK  119  A    between atoms: _294  and  _296
REMARK  120  A    between atoms: _296  and  _297
REMARK  121  A    between atoms: _296  and  _299
REMARK  122  A    between atoms: _299  and  _300
REMARK  123  A    between atoms: _303  and  _305
REMARK  124  A    between atoms: _305  and  _306
REMARK  125  A    between atoms: _305  and  _308
REMARK  126  A    between atoms: _308  and  _309
REMARK  127  A    between atoms: _312  and  _314
REMARK  128  A    between atoms: _314  and  _315
REMARK  129  A    between atoms: _314  and  _317
REMARK  130  A    between atoms: _317  and  _318
REMARK  131  A    between atoms: _321  and  _323
REMARK  132  A    between atoms: _323  and  _324
REMARK  133  A    between atoms: _326  and  _328
REMARK  134  A    between atoms: _328  and  _329
REMARK  135  A    between atoms: _332  and  _334
REMARK  136  A    between atoms: _334  and  _335
REMARK  137  A    between atoms: _334  and  _337
REMARK  138  A    between atoms: _337  and  _338
REMARK  139  A    between atoms: _341  and  _343
REMARK  140  A    between atoms: _343  and  _344
REMARK  141  A    between atoms: _343  and  _346
REMARK  142  A    between atoms: _346  and  _347
REMARK  143  A    between atoms: _350  and  _352
REMARK  144  A    between atoms: _352  and  _353
REMARK  145  A    between atoms: _352  and  _355
REMARK  146  A    between atoms: _355  and  _356
REMARK  147  A    between atoms: _359  and  _361
REMARK  148  A    between atoms: _361  and  _362
REMARK  149  A    between atoms: _361  and  _364
REMARK  150  A    between atoms: _367  and  _369
REMARK  151  A    between atoms: _369  and  _370
REMARK  152  A    between atoms: _369  and  _372
REMARK  153  A    between atoms: _372  and  _373
REMARK  154  A    between atoms: _376  and  _378
REMARK  155  A    between atoms: _378  and  _379
REMARK  156  A    between atoms: _378  and  _381
REMARK  157  A    between atoms: _381  and  _382
REMARK  158  A    between atoms: _382  and  _383
REMARK  159  A    between atoms: _386  and  _388
REMARK  160  A    between atoms: _388  and  _389
REMARK  161  A    between atoms: _388  and  _391
REMARK  162  A    between atoms: _391  and  _392
REMARK  163  A    between atoms: _392  and  _393
REMARK  164  A    between atoms: _393  and  _394
REMARK  165  A    between atoms: _394  and  _395
REMARK  166  A    between atoms: _399  and  _401
REMARK  167  A    between atoms: _401  and  _402
REMARK  168  A    between atoms: _401  and  _404
REMARK  169  A    between atoms: _404  and  _405
REMARK  170  A    between atoms: _405  and  _406
REMARK  171  A    between atoms: _408  and  _410
REMARK  172  A    between atoms: _410  and  _411
REMARK  173  A    between atoms: _410  and  _413
REMARK  174  A    between atoms: _413  and  _414
REMARK  175  A    between atoms: _417  and  _419
REMARK  176  A    between atoms: _419  and  _420
REMARK  177  A    between atoms: _419  and  _422
REMARK  178  A    between atoms: _425  and  _427
REMARK  179  A    between atoms: _427  and  _428
REMARK  180  A    between atoms: _430  and  _432
REMARK  181  A    between atoms: _432  and  _433
REMARK  182  A    between atoms: _432  and  _435
REMARK  183  A    between atoms: _435  and  _436
REMARK  184  A    between atoms: _439  and  _441
REMARK  185  A    between atoms: _441  and  _442
REMARK  186  A    between atoms: _444  and  _446
REMARK  187  A    between atoms: _446  and  _447
REMARK  188  A    between atoms: _449  and  _451
REMARK  189  A    between atoms: _451  and  _452
REMARK  190  A    between atoms: _451  and  _454
REMARK  191  A    between atoms: _457  and  _459
REMARK  192  A    between atoms: _459  and  _460
REMARK  193  A    between atoms: _459  and  _462
REMARK  194  A    between atoms: _465  and  _467
REMARK  195  A    between atoms: _467  and  _468
REMARK  196  A    between atoms: _467  and  _470
REMARK  197  A    between atoms: _470  and  _471
REMARK  198  A    between atoms: _475  and  _476
REMARK  199  A    between atoms: _481  and  _483
REMARK  200  A    between atoms: _483  and  _484
REMARK  201  A    between atoms: _483  and  _486
REMARK  202  A    between atoms: _486  and  _487
REMARK  203  A    between atoms: _491  and  _492
REMARK  204  A    between atoms: _497  and  _499
REMARK  205  A    between atoms: _499  and  _500
REMARK  206  A    between atoms: _503  and  _505
REMARK  207  A    between atoms: _505  and  _506
REMARK  208  A    between atoms: _505  and  _508
REMARK  209  A    between atoms: _508  and  _509
REMARK  210  A    between atoms: _514  and  _516
REMARK  211  A    between atoms: _516  and  _517
REMARK  212  A    between atoms: _516  and  _519
REMARK  213  A    between atoms: _519  and  _520
REMARK  214  A    between atoms: _523  and  _525
REMARK  215  A    between atoms: _525  and  _526
REMARK  216  A    between atoms: _525  and  _528
REMARK  217  A    between atoms: _528  and  _529
REMARK  218  A    between atoms: _532  and  _534
REMARK  219  A    between atoms: _534  and  _535
REMARK  220  A    between atoms: _537  and  _539
REMARK  221  A    between atoms: _539  and  _540
REMARK  222  A    between atoms: _539  and  _542
REMARK  223  A    between atoms: _542  and  _543
REMARK  224  A    between atoms: _543  and  _544
REMARK  225  A    between atoms: _544  and  _545
REMARK  226  A    between atoms: _554  and  _556
REMARK  227  A    between atoms: _556  and  _557
REMARK  228  A    between atoms: _556  and  _559
REMARK  229  A    between atoms: _559  and  _560
REMARK                            x       y       z     vdW  Elec       q    Type
REMARK                         _______ _______ _______ _____ _____    ______ ____
ROOT
ATOM      1  C   ILE A   5      17.676 -23.085  27.610  0.00  0.00    +0.241 C 
ATOM      2  N   ILE A   6      18.276 -24.242  27.865  0.00  0.00    -0.297 N 
ATOM      3  H   ILE A   6      18.934 -24.296  28.669  0.00  0.00    +0.150 HD
ATOM      4  O   ILE A   5      16.921 -22.902  26.651  0.00  0.00    -0.273 OA
ENDROOT
BRANCH   2   5
ATOM      5  CA  ILE A   6      18.052 -25.435  27.069  0.00  0.00    +0.149 C 
BRANCH   5   6
ATOM      6  C   ILE A   6      17.040 -26.283  27.829  0.00  0.00    +0.241 C 
ATOM      7  O   ILE A   6      17.301 -26.691  28.968  0.00  0.00    -0.273 OA
ATOM      8  N   GLY A   7      15.878 -26.489  27.209  0.00  0.00    -0.295 N 
ATOM      9  H   GLY A   7      15.784 -26.192  26.217  0.00  0.00    +0.150 HD
BRANCH   8  10
ATOM     10  CA  GLY A   7      14.736 -27.111  27.861  0.00  0.00    +0.176 C 
BRANCH  10  11
ATOM     11  C   GLY A   7      14.599 -28.558  27.439  0.00  0.00    +0.243 C 
ATOM     12  N   ARG A   8      13.522 -29.171  27.910  0.00  0.00    -0.297 N 
ATOM     13  H   ARG A   8      12.800 -28.617  28.413  0.00  0.00    +0.150 HD
ATOM     14  O   GLY A   7      15.387 -29.071  26.622  0.00  0.00    -0.273 OA
BRANCH  12  15
ATOM     15  CA  ARG A   8      13.330 -30.594  27.739  0.00  0.00    +0.149 C 
BRANCH  15  16
ATOM     16  C   ARG A   8      13.245 -31.038  26.274  0.00  0.00    +0.241 C 
ATOM     17  O   ARG A   8      13.602 -32.167  25.966  0.00  0.00    -0.273 OA
ATOM     18  N   ASN A   9      12.789 -30.171  25.375  0.00  0.00    -0.298 N 
ATOM     19  H   ASN A   9      12.468 -29.229  25.677  0.00  0.00    +0.150 HD
BRANCH  18  20
ATOM     20  CA  ASN A   9      12.739 -30.540  23.966  0.00  0.00    +0.146 C 
BRANCH  20  21
ATOM     21  C   ASN A   9      14.109 -30.963  23.451  0.00  0.00    +0.227 C 
ATOM     22  O   ASN A   9      14.234 -31.961  22.749  0.00  0.00    -0.286 OA
ENDBRANCH  20  21
BRANCH  20  23
ATOM     23  CB  ASN A   9      12.108 -29.439  23.082  0.00  0.00    +0.112 C 
BRANCH  23  24
ATOM     24  CG  ASN A   9      12.981 -28.187  22.949  0.00  0.00    +0.222 C 
ATOM     25  OD1 ASN A   9      13.476 -27.635  23.937  0.00  0.00    -0.275 OA
ATOM     26  ND2 ASN A   9      13.090 -27.683  21.721  0.00  0.00    -0.329 N 
ATOM     27 HD21 ASN A   9      13.607 -26.793  21.568  0.00  0.00    +0.145 HD
ATOM     28 HD22 ASN A   9      12.658 -28.179  20.915  0.00  0.00    +0.145 HD
ENDBRANCH  23  24
ENDBRANCH  20  23
ENDBRANCH  18  20
ENDBRANCH  15  16
BRANCH  15  29
ATOM     29  CB  ARG A   8      12.114 -31.071  28.532  0.00  0.00    +0.033 C 
BRANCH  29  30
ATOM     30  CG  ARG A   8      12.366 -31.095  30.027  0.00  0.00    +0.045 C 
BRANCH  30  31
ATOM     31  CD  ARG A   8      11.249 -31.803  30.768  0.00  0.00    +0.174 C 
BRANCH  31  32
ATOM     32  NE  ARG A   8       9.951 -31.183  30.518  0.00  0.00    -0.265 N 
ATOM     33  HE  ARG A   8       9.702 -30.329  31.056  0.00  0.00    +0.259 HD
ATOM     34  CZ  ARG A   8       9.071 -31.652  29.639  0.00  0.00    +0.342 C 
ATOM     35  NH2 ARG A   8       7.921 -31.025  29.460  0.00  0.00    -0.292 N 
ATOM     36 HH21 ARG A   8       7.706 -30.167  30.006  0.00  0.00    +0.255 HD
ATOM     37 HH22 ARG A   8       7.231 -31.390  28.773  0.00  0.00    +0.255 HD
ATOM     38  NH1 ARG A   8       9.342 -32.750  28.941  0.00  0.00    -0.292 N 
ATOM     39 HH11 ARG A   8      10.245 -33.246  29.081  0.00  0.00    +0.255 HD
ATOM     40 HH12 ARG A   8       8.651 -33.114  28.254  0.00  0.00    +0.255 HD
ENDBRANCH  31  32
ENDBRANCH  30  31
ENDBRANCH  29  30
ENDBRANCH  15  29
ENDBRANCH  12  15
ENDBRANCH  10  11
ENDBRANCH   8  10
ENDBRANCH   5   6
BRANCH   5  41
ATOM     41  CB  ILE A   6      19.344 -26.243  26.880  0.00  0.00    +0.027 C 
ATOM     42  CG2 ILE A   6      19.100 -27.420  25.932  0.00  0.00    +0.002 C 
BRANCH  41  43
ATOM     43  CG1 ILE A   6      20.494 -25.356  26.341  0.00  0.00    +0.002 C 
ATOM     44  CD1 ILE A   6      20.132 -24.490  25.177  0.00  0.00    +0.000 C 
ENDBRANCH  41  43
ENDBRANCH   5  41
ENDBRANCH   2   5
BRANCH   1  45
ATOM     45  CA  ILE A   5      18.021 -21.971  28.591  0.00  0.00    +0.149 C 
BRANCH  45  48
ATOM     46  C   ASN A   4      19.512 -20.105  28.350  0.00  0.00    +0.241 C 
ATOM     47  O   ASN A   4      20.220 -20.569  29.229  0.00  0.00    -0.273 OA
ATOM     48  N   ILE A   5      18.382 -20.699  27.977  0.00  0.00    -0.297 N 
ATOM     49  H   ILE A   5      17.767 -20.264  27.260  0.00  0.00    +0.150 HD
BRANCH  46  50
ATOM     50  CA  ASN A   4      19.878 -18.780  27.692  0.00  0.00    +0.158 C 
BRANCH  50  53
ATOM     51  C   ALA A   3      19.057 -17.372  29.474  0.00  0.00    +0.241 C 
ATOM     52  O   ALA A   3      17.892 -17.612  29.181  0.00  0.00    -0.273 OA
ATOM     53  N   ASN A   4      20.073 -17.783  28.732  0.00  0.00    -0.297 N 
ATOM     54  H   ASN A   4      21.021 -17.388  28.895  0.00  0.00    +0.150 HD
BRANCH  51  55
ATOM     55  CA  ALA A   3      19.401 -16.515  30.680  0.00  0.00    +0.149 C 
ATOM     56  CB  ALA A   3      19.624 -17.373  31.936  0.00  0.00    +0.031 C 
BRANCH  55  59
ATOM     57  C   PRO A   2      18.630 -14.361  31.495  0.00  0.00    +0.241 C 
ATOM     58  O   PRO A   2      19.776 -14.047  31.820  0.00  0.00    -0.273 OA
ATOM     59  N   ALA A   3      18.353 -15.528  30.920  0.00  0.00    -0.297 N 
ATOM     60  H   ALA A   3      17.375 -15.740  30.637  0.00  0.00    +0.150 HD
BRANCH  57  66
ATOM     61  C   THR A   1      16.094 -13.692  29.765  0.00  0.00    +0.244 C 
ATOM     62  N   PRO A   2      16.200 -13.761  31.099  0.00  0.00    -0.272 N 
ATOM     63  CD  PRO A   2      15.163 -14.162  32.069  0.00  0.00    +0.094 C 
ATOM     64  CG  PRO A   2      15.882 -14.178  33.384  0.00  0.00    +0.024 C 
ATOM     65  CB  PRO A   2      17.101 -13.316  33.224  0.00  0.00    +0.031 C 
ATOM     66  CA  PRO A   2      17.462 -13.383  31.736  0.00  0.00    +0.152 C 
ATOM     67  O   THR A   1      17.003 -13.270  29.055  0.00  0.00    -0.273 OA
BRANCH  61  68
ATOM     68  CA  THR A   1      14.797 -14.192  29.131  0.00  0.00    +0.172 C 
BRANCH  68  69
ATOM     69  N   THR A   1      14.508 -13.311  28.010  0.00  0.00    -0.236 NA
ATOM     70  H   THR A   1      15.130 -13.333  27.177  0.00  0.00    +0.142 HD
ENDBRANCH  68  69
BRANCH  68  71
ATOM     71  CB  THR A   1      14.950 -15.669  28.655  0.00  0.00    +0.135 C 
ATOM     72  CG2 THR A   1      15.872 -15.761  27.435  0.00  0.00    +0.034 C 
BRANCH  71  73
ATOM     73  OG1 THR A   1      15.494 -16.484  29.709  0.00  0.00    -0.383 OA
ATOM     74  HG1 THR A   1      16.383 -16.135  29.969  0.00  0.00    +0.210 HD
ENDBRANCH  71  73
ENDBRANCH  68  71
ENDBRANCH  61  68
ENDBRANCH  57  66
ENDBRANCH  55  59
ENDBRANCH  51  55
ENDBRANCH  50  53
BRANCH  50  75
ATOM     75  CB  ASN A   4      21.150 -18.952  26.865  0.00  0.00    +0.114 C 
BRANCH  75  76
ATOM     76  CG  ASN A   4      21.447 -17.762  25.946  0.00  0.00    +0.222 C 
ATOM     77  ND2 ASN A   4      22.725 -17.582  25.662  0.00  0.00    -0.329 N 
ATOM     78 HD21 ASN A   4      23.443 -18.214  26.071  0.00  0.00    +0.145 HD
ATOM     79 HD22 ASN A   4      23.013 -16.808  25.029  0.00  0.00    +0.145 HD
ATOM     80  OD1 ASN A   4      20.554 -17.035  25.483  0.00  0.00    -0.275 OA
ENDBRANCH  75  76
ENDBRANCH  50  75
ENDBRANCH  46  50
ENDBRANCH  45  48
BRANCH  45  81
ATOM     81  CB  ILE A   5      16.935 -21.825  29.671  0.00  0.00    +0.027 C 
ATOM     82  CG2 ILE A   5      17.324 -20.783  30.699  0.00  0.00    +0.002 C 
BRANCH  81  83
ATOM     83  CG1 ILE A   5      15.597 -21.456  29.073  0.00  0.00    +0.002 C 
ATOM     84  CD1 ILE A   5      14.626 -20.888  30.098  0.00  0.00    +0.000 C 
ENDBRANCH  81  83
ENDBRANCH  45  81
ENDBRANCH   1  45
TORSDOF 31
REMARK  Name = ../refined-set-2016/3ekp/3ekp_pocket.pdb
REMARK  229 active torsions:
REMARK  status: ('A' for Active; 'I' for Inactive)
REMARK    1  A    between atoms: _1  and  _3
REMARK    2  A    between atoms: _3  and  _4
REMARK    3  A    between atoms: _3  and  _6
REMARK    4  A    between atoms: _6  and  _7
REMARK    5  A    between atoms: _7  and  _8
REMARK    6  A    between atoms: _8  and  _9
REMARK    7  A    between atoms: _18  and  _20
REMARK    8  A    between atoms: _20  and  _21
REMARK    9  A    between atoms: _20  and  _23
REMARK   10  A    between atoms: _23  and  _24
REMARK   11  A    between atoms: _27  and  _29
REMARK   12  A    between atoms: _29  and  _30
REMARK   13  A    between atoms: _29  and  _32
REMARK   14  A    between atoms: _32  and  _33
REMARK   15  A    between atoms: _36  and  _38
REMARK   16  A    between atoms: _38  and  _39
REMARK   17  A    between atoms: _38  and  _41
REMARK   18  A    between atoms: _41  and  _42
REMARK   19  A    between atoms: _45  and  _47
REMARK   20  A    between atoms: _47  and  _48
REMARK   21  A    between atoms: _47  and  _50
REMARK   22  A    between atoms: _50  and  _51
REMARK   23  A    between atoms: _54  and  _56
REMARK   24  A    between atoms: _56  and  _57
REMARK   25  A    between atoms: _59  and  _61
REMARK   26  A    between atoms: _61  and  _62
REMARK   27  A    between atoms: _65  and  _67
REMARK   28  A    between atoms: _67  and  _68
REMARK   29  A    between atoms: _67  and  _70
REMARK   30  A    between atoms: _70  and  _71
REMARK   31  A    between atoms: _74  and  _76
REMARK   32  A    between atoms: _76  and  _77
REMARK   33  A    between atoms: _76  and  _79
REMARK   34  A    between atoms: _79  and  _80
REMARK   35  A    between atoms: _83  and  _85
REMARK   36  A    between atoms: _85  and  _86
REMARK   37  A    between atoms: _85  and  _88
REMARK   38  A    between atoms: _88  and  _89
REMARK   39  A    between atoms: _92  and  _94
REMARK   40  A    between atoms: _94  and  _95
REMARK   41  A    between atoms: _94  and  _97
REMARK   42  A    between atoms: _100  and  _102
REMARK   43  A    between atoms: _102  and  _103
REMARK   44  A    between atoms: _102  and  _105
REMARK   45  A    between atoms: _105  and  _106
REMARK   46  A    between atoms: _109  and  _111
REMARK   47  A    between atoms: _111  and  _112
REMARK   48  A    between atoms: _111  and  _114
REMARK   49  A    between atoms: _114  and  _115
REMARK   50  A    between atoms: _115  and  _116
REMARK   51  A    between atoms: _118  and  _120
REMARK   52  A    between atoms: _120  and  _121
REMARK   53  A    between atoms: _120  and  _123
REMARK   54  A    between atoms: _123  and  _124
REMARK   55  A    between atoms: _127  and  _129
REMARK   56  A    between atoms: _129  and  _130
REMARK   57  A    between atoms: _129  and  _132
REMARK   58  A    between atoms: _135  and  _137
REMARK   59  A    between atoms: _137  and  _138
REMARK   60  A    between atoms: _140  and  _142
REMARK   61  A    between atoms: _142  and  _143
REMARK   62  A    between atoms: _142  and  _145
REMARK   63  A    between atoms: _145  and  _146
REMARK   64  A    between atoms: _149  and  _151
REMARK   65  A    between atoms: _151  and  _152
REMARK   66  A    between atoms: _154  and  _156
REMARK   67  A    between atoms: _156  and  _157
REMARK   68  A    between atoms: _159  and  _161
REMARK   69  A    between atoms: _161  and  _162
REMARK   70  A    between atoms: _161  and  _164
REMARK   71  A    between atoms: _167  and  _169
REMARK   72  A    between atoms: _169  and  _170
REMARK   73  A    between atoms: _169  and  _172
REMARK   74  A    between atoms: _175  and  _177
REMARK   75  A    between atoms: _177  and  _178
REMARK   76  A    between atoms: _177  and  _180
REMARK   77  A    between atoms: _180  and  _181
REMARK   78  A    between atoms: _184  and  _186
REMARK   79  A    between atoms: _186  and  _187
REMARK   80  A    between atoms: _186  and  _189
REMARK   81  A    between atoms: _189  and  _190
REMARK   82  A    between atoms: _194  and  _195
REMARK   83  A    between atoms: _200  and  _202
REMARK   84  A    between atoms: _202  and  _203
REMARK   85  A    between atoms: _206  and  _208
REMARK   86  A    between atoms: _208  and  _209
REMARK   87  A    between atoms: _208  and  _211
REMARK   88  A    between atoms: _211  and  _212
REMARK   89  A    between atoms: _217  and  _219
REMARK   90  A    between atoms: _219  and  _220
REMARK   91  A    between atoms: _219  and  _222
REMARK   92  A    between atoms: _222  and  _223
REMARK   93  A    between atoms: _226  and  _228
REMARK   94  A    between atoms: _228  and  _229
REMARK   95  A    between atoms: _228  and  _231
REMARK   96  A    between atoms: _231  and  _232
REMARK   97  A    between atoms: _235  and  _237
REMARK   98  A    between atoms: _237  and  _238
REMARK   99  A    between atoms: _240  and  _242
REMARK  100  A    between atoms: _242  and  _243
REMARK  101  A    between atoms: _242  and  _245
REMARK  102  A    between atoms: _245  and  _246
REMARK  103  A    between atoms: _246  and  _247
REMARK  104  A    between atoms: _247  and  _248
REMARK  105  A    between atoms: _257  and  _259
REMARK  106  A    between atoms: _259  and  _260
REMARK  107  A    between atoms: _259  and  _262
REMARK  108  A    between atoms: _262  and  _263
REMARK  109  A    between atoms: _268  and  _270
REMARK  110  A    between atoms: _270  and  _271
REMARK  111  A    between atoms: _270  and  _273
REMARK  112  A    between atoms: _273  and  _274
REMARK  113  A    between atoms: _274  and  _275
REMARK  114  A    between atoms: _275  and  _276
REMARK  115  A    between atoms: _285  and  _287
REMARK  116  A    between atoms: _287  and  _288
REMARK  117  A    between atoms: _287  and  _290
REMARK  118  A    between atoms: _290  and  _291
REMARK  119  A    between atoms: _294  and  _296
REMARK  120  A    between atoms: _296  and  _297
REMARK  121  A    between atoms: _296  and  _299
REMARK  122  A    between atoms: _299  and  _300
REMARK  123  A    between atoms: _303  and  _305
REMARK  124  A    between atoms: _305  and  _306
REMARK  125  A    between atoms: _305  and  _308
REMARK  126  A    between atoms: _308  and  _309
REMARK  127  A    between atoms: _312  and  _314
REMARK  128  A    between atoms: _314  and  _315
REMARK  129  A    between atoms: _314  and  _317
REMARK  130  A    between atoms: _317  and  _318
REMARK  131  A    between atoms: _321  and  _323
REMARK  132  A    between atoms: _323  and  _324
REMARK  133  A    between atoms: _326  and  _328
REMARK  134  A    between atoms: _328  and  _329
REMARK  135  A    between atoms: _332  and  _334
REMARK  136  A    between atoms: _334  and  _335
REMARK  137  A    between atoms: _334  and  _337
REMARK  138  A    between atoms: _337  and  _338
REMARK  139  A    between atoms: _341  and  _343
REMARK  140  A    between atoms: _343  and  _344
REMARK  141  A    between atoms: _343  and  _346
REMARK  142  A    between atoms: _346  and  _347
REMARK  143  A    between atoms: _350  and  _352
REMARK  144  A    between atoms: _352  and  _353
REMARK  145  A    between atoms: _352  and  _355
REMARK  146  A    between atoms: _355  and  _356
REMARK  147  A    between atoms: _359  and  _361
REMARK  148  A    between atoms: _361  and  _362
REMARK  149  A    between atoms: _361  and  _364
REMARK  150  A    between atoms: _367  and  _369
REMARK  151  A    between atoms: _369  and  _370
REMARK  152  A    between atoms: _369  and  _372
REMARK  153  A    between atoms: _372  and  _373
REMARK  154  A    between atoms: _376  and  _378
REMARK  155  A    between atoms: _378  and  _379
REMARK  156  A    between atoms: _378  and  _381
REMARK  157  A    between atoms: _381  and  _382
REMARK  158  A    between atoms: _382  and  _383
REMARK  159  A    between atoms: _386  and  _388
REMARK  160  A    between atoms: _388  and  _389
REMARK  161  A    between atoms: _388  and  _391
REMARK  162  A    between atoms: _391  and  _392
REMARK  163  A    between atoms: _392  and  _393
REMARK  164  A    between atoms: _393  and  _394
REMARK  165  A    between atoms: _394  and  _395
REMARK  166  A    between atoms: _399  and  _401
REMARK  167  A    between atoms: _401  and  _402
REMARK  168  A    between atoms: _401  and  _404
REMARK  169  A    between atoms: _404  and  _405
REMARK  170  A    between atoms: _405  and  _406
REMARK  171  A    between atoms: _408  and  _410
REMARK  172  A    between atoms: _410  and  _411
REMARK  173  A    between atoms: _410  and  _413
REMARK  174  A    between atoms: _413  and  _414
REMARK  175  A    between atoms: _417  and  _419
REMARK  176  A    between atoms: _419  and  _420
REMARK  177  A    between atoms: _419  and  _422
REMARK  178  A    between atoms: _425  and  _427
REMARK  179  A    between atoms: _427  and  _428
REMARK  180  A    between atoms: _430  and  _432
REMARK  181  A    between atoms: _432  and  _433
REMARK  182  A    between atoms: _432  and  _435
REMARK  183  A    between atoms: _435  and  _436
REMARK  184  A    between atoms: _439  and  _441
REMARK  185  A    between atoms: _441  and  _442
REMARK  186  A    between atoms: _444  and  _446
REMARK  187  A    between atoms: _446  and  _447
REMARK  188  A    between atoms: _449  and  _451
REMARK  189  A    between atoms: _451  and  _452
REMARK  190  A    between atoms: _451  and  _454
REMARK  191  A    between atoms: _457  and  _459
REMARK  192  A    between atoms: _459  and  _460
REMARK  193  A    between atoms: _459  and  _462
REMARK  194  A    between atoms: _465  and  _467
REMARK  195  A    between atoms: _467  and  _468
REMARK  196  A    between atoms: _467  and  _470
REMARK  197  A    between atoms: _470  and  _471
REMARK  198  A    between atoms: _475  and  _476
REMARK  199  A    between atoms: _481  and  _483
REMARK  200  A    between atoms: _483  and  _484
REMARK  201  A    between atoms: _483  and  _486
REMARK  202  A    between atoms: _486  and  _487
REMARK  203  A    between atoms: _491  and  _492
REMARK  204  A    between atoms: _497  and  _499
REMARK  205  A    between atoms: _499  and  _500
REMARK  206  A    between atoms: _503  and  _505
REMARK  207  A    between atoms: _505  and  _506
REMARK  208  A    between atoms: _505  and  _508
REMARK  209  A    between atoms: _508  and  _509
REMARK  210  A    between atoms: _514  and  _516
REMARK  211  A    between atoms: _516  and  _517
REMARK  212  A    between atoms: _516  and  _519
REMARK  213  A    between atoms: _519  and  _520
REMARK  214  A    between atoms: _523  and  _525
REMARK  215  A    between atoms: _525  and  _526
REMARK  216  A    between atoms: _525  and  _528
REMARK  217  A    between atoms: _528  and  _529
REMARK  218  A    between atoms: _532  and  _534
REMARK  219  A    between atoms: _534  and  _535
REMARK  220  A    between atoms: _537  and  _539
REMARK  221  A    between atoms: _539  and  _540
REMARK  222  A    between atoms: _539  and  _542
REMARK  223  A    between atoms: _542  and  _543
REMARK  224  A    between atoms: _543  and  _544
REMARK  225  A    between atoms: _544  and  _545
REMARK  226  A    between atoms: _554  and  _556
REMARK  227  A    between atoms: _556  and  _557
REMARK  228  A    between atoms: _556  and  _559
REMARK  229  A    between atoms: _559  and  _560
REMARK                            x       y       z     vdW  Elec       q    Type
REMARK                         _______ _______ _______ _____ _____    ______ ____
ROOT
ATOM      1  NE  ARG A   1       5.376 -29.382  32.352  0.00  0.00    -0.265 N 
ATOM      2  CZ  ARG A   1       4.208 -28.809  32.068  0.00  0.00    +0.342 C 
ATOM      3  NH2 ARG A   1       3.071 -29.321  32.532  0.00  0.00    -0.292 N 
ATOM      4 HH21 ARG A   1       3.089 -30.177  33.123  0.00  0.00    +0.255 HD
ATOM      5 HH22 ARG A   1       2.164 -28.865  32.304  0.00  0.00    +0.255 HD
ATOM      6  NH1 ARG A   1       4.183 -27.713  31.319  0.00  0.00    -0.292 N 
ATOM      7 HH11 ARG A   1       3.275 -27.259  31.092  0.00  0.00    +0.255 HD
ATOM      8 HH12 ARG A   1       5.071 -27.309  30.959  0.00  0.00    +0.255 HD
ATOM      9  HE  ARG A   1       6.234 -28.942  31.962  0.00  0.00    +0.259 HD
ENDROOT
BRANCH   1  10
ATOM     10  CD  ARG A   1       5.545 -30.579  33.167  0.00  0.00    +0.174 C 
BRANCH  10  11
ATOM     11  CG  ARG A   1       6.834 -31.228  32.810  0.00  0.00    +0.045 C 
BRANCH  11  12
ATOM     12  CB  ARG A   1       7.147 -32.360  33.736  0.00  0.00    +0.029 C 
BRANCH  12  13
ATOM     13  CA  ARG A   1       8.244 -33.263  33.213  0.00  0.00    +0.133 C 
BRANCH  13  14
ATOM     14  N   ARG A   1       7.737 -34.103  32.146  0.00  0.00    -0.239 NA
ATOM     15  H   ARG A   1       6.741 -34.005  31.862  0.00  0.00    +0.142 HD
ENDBRANCH  13  14
BRANCH  13  16
ATOM     16  C   ARG A   1       8.734 -34.150  34.330  0.00  0.00    +0.224 C 
ATOM     17  O   ARG A   1       8.116 -35.176  34.595  0.00  0.00    -0.287 OA
ENDBRANCH  13  16
ENDBRANCH  12  13
ENDBRANCH  11  12
ENDBRANCH  10  11
ENDBRANCH   1  10
TORSDOF 6
REMARK  Name = ../refined-set-2016/3ekp/3ekp_pocket.pdb
REMARK  229 active torsions:
REMARK  status: ('A' for Active; 'I' for Inactive)
REMARK    1  A    between atoms: _1  and  _3
REMARK    2  A    between atoms: _3  and  _4
REMARK    3  A    between atoms: _3  and  _6
REMARK    4  A    between atoms: _6  and  _7
REMARK    5  A    between atoms: _7  and  _8
REMARK    6  A    between atoms: _8  and  _9
REMARK    7  A    between atoms: _18  and  _20
REMARK    8  A    between atoms: _20  and  _21
REMARK    9  A    between atoms: _20  and  _23
REMARK   10  A    between atoms: _23  and  _24
REMARK   11  A    between atoms: _27  and  _29
REMARK   12  A    between atoms: _29  and  _30
REMARK   13  A    between atoms: _29  and  _32
REMARK   14  A    between atoms: _32  and  _33
REMARK   15  A    between atoms: _36  and  _38
REMARK   16  A    between atoms: _38  and  _39
REMARK   17  A    between atoms: _38  and  _41
REMARK   18  A    between atoms: _41  and  _42
REMARK   19  A    between atoms: _45  and  _47
REMARK   20  A    between atoms: _47  and  _48
REMARK   21  A    between atoms: _47  and  _50
REMARK   22  A    between atoms: _50  and  _51
REMARK   23  A    between atoms: _54  and  _56
REMARK   24  A    between atoms: _56  and  _57
REMARK   25  A    between atoms: _59  and  _61
REMARK   26  A    between atoms: _61  and  _62
REMARK   27  A    between atoms: _65  and  _67
REMARK   28  A    between atoms: _67  and  _68
REMARK   29  A    between atoms: _67  and  _70
REMARK   30  A    between atoms: _70  and  _71
REMARK   31  A    between atoms: _74  and  _76
REMARK   32  A    between atoms: _76  and  _77
REMARK   33  A    between atoms: _76  and  _79
REMARK   34  A    between atoms: _79  and  _80
REMARK   35  A    between atoms: _83  and  _85
REMARK   36  A    between atoms: _85  and  _86
REMARK   37  A    between atoms: _85  and  _88
REMARK   38  A    between atoms: _88  and  _89
REMARK   39  A    between atoms: _92  and  _94
REMARK   40  A    between atoms: _94  and  _95
REMARK   41  A    between atoms: _94  and  _97
REMARK   42  A    between atoms: _100  and  _102
REMARK   43  A    between atoms: _102  and  _103
REMARK   44  A    between atoms: _102  and  _105
REMARK   45  A    between atoms: _105  and  _106
REMARK   46  A    between atoms: _109  and  _111
REMARK   47  A    between atoms: _111  and  _112
REMARK   48  A    between atoms: _111  and  _114
REMARK   49  A    between atoms: _114  and  _115
REMARK   50  A    between atoms: _115  and  _116
REMARK   51  A    between atoms: _118  and  _120
REMARK   52  A    between atoms: _120  and  _121
REMARK   53  A    between atoms: _120  and  _123
REMARK   54  A    between atoms: _123  and  _124
REMARK   55  A    between atoms: _127  and  _129
REMARK   56  A    between atoms: _129  and  _130
REMARK   57  A    between atoms: _129  and  _132
REMARK   58  A    between atoms: _135  and  _137
REMARK   59  A    between atoms: _137  and  _138
REMARK   60  A    between atoms: _140  and  _142
REMARK   61  A    between atoms: _142  and  _143
REMARK   62  A    between atoms: _142  and  _145
REMARK   63  A    between atoms: _145  and  _146
REMARK   64  A    between atoms: _149  and  _151
REMARK   65  A    between atoms: _151  and  _152
REMARK   66  A    between atoms: _154  and  _156
REMARK   67  A    between atoms: _156  and  _157
REMARK   68  A    between atoms: _159  and  _161
REMARK   69  A    between atoms: _161  and  _162
REMARK   70  A    between atoms: _161  and  _164
REMARK   71  A    between atoms: _167  and  _169
REMARK   72  A    between atoms: _169  and  _170
REMARK   73  A    between atoms: _169  and  _172
REMARK   74  A    between atoms: _175  and  _177
REMARK   75  A    between atoms: _177  and  _178
REMARK   76  A    between atoms: _177  and  _180
REMARK   77  A    between atoms: _180  and  _181
REMARK   78  A    between atoms: _184  and  _186
REMARK   79  A    between atoms: _186  and  _187
REMARK   80  A    between atoms: _186  and  _189
REMARK   81  A    between atoms: _189  and  _190
REMARK   82  A    between atoms: _194  and  _195
REMARK   83  A    between atoms: _200  and  _202
REMARK   84  A    between atoms: _202  and  _203
REMARK   85  A    between atoms: _206  and  _208
REMARK   86  A    between atoms: _208  and  _209
REMARK   87  A    between atoms: _208  and  _211
REMARK   88  A    between atoms: _211  and  _212
REMARK   89  A    between atoms: _217  and  _219
REMARK   90  A    between atoms: _219  and  _220
REMARK   91  A    between atoms: _219  and  _222
REMARK   92  A    between atoms: _222  and  _223
REMARK   93  A    between atoms: _226  and  _228
REMARK   94  A    between atoms: _228  and  _229
REMARK   95  A    between atoms: _228  and  _231
REMARK   96  A    between atoms: _231  and  _232
REMARK   97  A    between atoms: _235  and  _237
REMARK   98  A    between atoms: _237  and  _238
REMARK   99  A    between atoms: _240  and  _242
REMARK  100  A    between atoms: _242  and  _243
REMARK  101  A    between atoms: _242  and  _245
REMARK  102  A    between atoms: _245  and  _246
REMARK  103  A    between atoms: _246  and  _247
REMARK  104  A    between atoms: _247  and  _248
REMARK  105  A    between atoms: _257  and  _259
REMARK  106  A    between atoms: _259  and  _260
REMARK  107  A    between atoms: _259  and  _262
REMARK  108  A    between atoms: _262  and  _263
REMARK  109  A    between atoms: _268  and  _270
REMARK  110  A    between atoms: _270  and  _271
REMARK  111  A    between atoms: _270  and  _273
REMARK  112  A    between atoms: _273  and  _274
REMARK  113  A    between atoms: _274  and  _275
REMARK  114  A    between atoms: _275  and  _276
REMARK  115  A    between atoms: _285  and  _287
REMARK  116  A    between atoms: _287  and  _288
REMARK  117  A    between atoms: _287  and  _290
REMARK  118  A    between atoms: _290  and  _291
REMARK  119  A    between atoms: _294  and  _296
REMARK  120  A    between atoms: _296  and  _297
REMARK  121  A    between atoms: _296  and  _299
REMARK  122  A    between atoms: _299  and  _300
REMARK  123  A    between atoms: _303  and  _305
REMARK  124  A    between atoms: _305  and  _306
REMARK  125  A    between atoms: _305  and  _308
REMARK  126  A    between atoms: _308  and  _309
REMARK  127  A    between atoms: _312  and  _314
REMARK  128  A    between atoms: _314  and  _315
REMARK  129  A    between atoms: _314  and  _317
REMARK  130  A    between atoms: _317  and  _318
REMARK  131  A    between atoms: _321  and  _323
REMARK  132  A    between atoms: _323  and  _324
REMARK  133  A    between atoms: _326  and  _328
REMARK  134  A    between atoms: _328  and  _329
REMARK  135  A    between atoms: _332  and  _334
REMARK  136  A    between atoms: _334  and  _335
REMARK  137  A    between atoms: _334  and  _337
REMARK  138  A    between atoms: _337  and  _338
REMARK  139  A    between atoms: _341  and  _343
REMARK  140  A    between atoms: _343  and  _344
REMARK  141  A    between atoms: _343  and  _346
REMARK  142  A    between atoms: _346  and  _347
REMARK  143  A    between atoms: _350  and  _352
REMARK  144  A    between atoms: _352  and  _353
REMARK  145  A    between atoms: _352  and  _355
REMARK  146  A    between atoms: _355  and  _356
REMARK  147  A    between atoms: _359  and  _361
REMARK  148  A    between atoms: _361  and  _362
REMARK  149  A    between atoms: _361  and  _364
REMARK  150  A    between atoms: _367  and  _369
REMARK  151  A    between atoms: _369  and  _370
REMARK  152  A    between atoms: _369  and  _372
REMARK  153  A    between atoms: _372  and  _373
REMARK  154  A    between atoms: _376  and  _378
REMARK  155  A    between atoms: _378  and  _379
REMARK  156  A    between atoms: _378  and  _381
REMARK  157  A    between atoms: _381  and  _382
REMARK  158  A    between atoms: _382  and  _383
REMARK  159  A    between atoms: _386  and  _388
REMARK  160  A    between atoms: _388  and  _389
REMARK  161  A    between atoms: _388  and  _391
REMARK  162  A    between atoms: _391  and  _392
REMARK  163  A    between atoms: _392  and  _393
REMARK  164  A    between atoms: _393  and  _394
REMARK  165  A    between atoms: _394  and  _395
REMARK  166  A    between atoms: _399  and  _401
REMARK  167  A    between atoms: _401  and  _402
REMARK  168  A    between atoms: _401  and  _404
REMARK  169  A    between atoms: _404  and  _405
REMARK  170  A    between atoms: _405  and  _406
REMARK  171  A    between atoms: _408  and  _410
REMARK  172  A    between atoms: _410  and  _411
REMARK  173  A    between atoms: _410  and  _413
REMARK  174  A    between atoms: _413  and  _414
REMARK  175  A    between atoms: _417  and  _419
REMARK  176  A    between atoms: _419  and  _420
REMARK  177  A    between atoms: _419  and  _422
REMARK  178  A    between atoms: _425  and  _427
REMARK  179  A    between atoms: _427  and  _428
REMARK  180  A    between atoms: _430  and  _432
REMARK  181  A    between atoms: _432  and  _433
REMARK  182  A    between atoms: _432  and  _435
REMARK  183  A    between atoms: _435  and  _436
REMARK  184  A    between atoms: _439  and  _441
REMARK  185  A    between atoms: _441  and  _442
REMARK  186  A    between atoms: _444  and  _446
REMARK  187  A    between atoms: _446  and  _447
REMARK  188  A    between atoms: _449  and  _451
REMARK  189  A    between atoms: _451  and  _452
REMARK  190  A    between atoms: _451  and  _454
REMARK  191  A    between atoms: _457  and  _459
REMARK  192  A    between atoms: _459  and  _460
REMARK  193  A    between atoms: _459  and  _462
REMARK  194  A    between atoms: _465  and  _467
REMARK  195  A    between atoms: _467  and  _468
REMARK  196  A    between atoms: _467  and  _470
REMARK  197  A    between atoms: _470  and  _471
REMARK  198  A    between atoms: _475  and  _476
REMARK  199  A    between atoms: _481  and  _483
REMARK  200  A    between atoms: _483  and  _484
REMARK  201  A    between atoms: _483  and  _486
REMARK  202  A    between atoms: _486  and  _487
REMARK  203  A    between atoms: _491  and  _492
REMARK  204  A    between atoms: _497  and  _499
REMARK  205  A    between atoms: _499  and  _500
REMARK  206  A    between atoms: _503  and  _505
REMARK  207  A    between atoms: _505  and  _506
REMARK  208  A    between atoms: _505  and  _508
REMARK  209  A    between atoms: _508  and  _509
REMARK  210  A    between atoms: _514  and  _516
REMARK  211  A    between atoms: _516  and  _517
REMARK  212  A    between atoms: _516  and  _519
REMARK  213  A    between atoms: _519  and  _520
REMARK  214  A    between atoms: _523  and  _525
REMARK  215  A    between atoms: _525  and  _526
REMARK  216  A    between atoms: _525  and  _528
REMARK  217  A    between atoms: _528  and  _529
REMARK  218  A    between atoms: _532  and  _534
REMARK  219  A    between atoms: _534  and  _535
REMARK  220  A    between atoms: _537  and  _539
REMARK  221  A    between atoms: _539  and  _540
REMARK  222  A    between atoms: _539  and  _542
REMARK  223  A    between atoms: _542  and  _543
REMARK  224  A    between atoms: _543  and  _544
REMARK  225  A    between atoms: _544  and  _545
REMARK  226  A    between atoms: _554  and  _556
REMARK  227  A    between atoms: _556  and  _557
REMARK  228  A    between atoms: _556  and  _559
REMARK  229  A    between atoms: _559  and  _560
REMARK                            x       y       z     vdW  Elec       q    Type
REMARK                         _______ _______ _______ _____ _____    ______ ____
ROOT
ATOM      1  CA  ASP A   7      19.051 -21.988  42.118  0.00  0.00    +0.160 C 
ENDROOT
BRANCH   1   3
ATOM      2  C   ALA A   6      17.487 -23.061  40.620  0.00  0.00    +0.241 C 
ATOM      3  N   ASP A   7      18.062 -21.939  41.051  0.00  0.00    -0.297 N 
ATOM      4  H   ASP A   7      17.804 -21.026  40.624  0.00  0.00    +0.150 HD
ATOM      5  O   ALA A   6      17.818 -24.171  41.031  0.00  0.00    -0.273 OA
BRANCH   2   6
ATOM      6  CA  ALA A   6      16.384 -22.932  39.567  0.00  0.00    +0.149 C 
ATOM      7  CB  ALA A   6      15.036 -23.413  40.131  0.00  0.00    +0.031 C 
BRANCH   6   9
ATOM      8  C   GLY A   5      17.049 -23.223  37.237  0.00  0.00    +0.243 C 
ATOM      9  N   ALA A   6      16.757 -23.750  38.418  0.00  0.00    -0.297 N 
ATOM     10  H   ALA A   6      16.795 -24.783  38.529  0.00  0.00    +0.150 HD
ATOM     11  O   GLY A   5      17.108 -22.014  37.037  0.00  0.00    -0.273 OA
BRANCH   8  12
ATOM     12  CA  GLY A   5      17.449 -24.189  36.152  0.00  0.00    +0.176 C 
BRANCH  12  15
ATOM     13  C   THR A   4      18.344 -26.240  37.081  0.00  0.00    +0.243 C 
ATOM     14  O   THR A   4      19.443 -25.731  37.283  0.00  0.00    -0.273 OA
ATOM     15  N   GLY A   5      17.319 -25.552  36.593  0.00  0.00    -0.295 N 
ATOM     16  H   GLY A   5      16.390 -26.014  36.527  0.00  0.00    +0.150 HD
BRANCH  13  17
ATOM     17  CA  THR A   4      18.092 -27.734  37.381  0.00  0.00    +0.176 C 
BRANCH  17  20
ATOM     18  C   ASP A   3      15.855 -27.632  38.319  0.00  0.00    +0.241 C 
ATOM     19  O   ASP A   3      16.222 -26.847  39.192  0.00  0.00    -0.273 OA
ATOM     20  N   THR A   4      16.675 -28.091  37.373  0.00  0.00    -0.295 N 
ATOM     21  H   THR A   4      16.303 -28.708  36.623  0.00  0.00    +0.150 HD
BRANCH  18  22
ATOM     22  CA  ASP A   3      14.406 -28.084  38.263  0.00  0.00    +0.160 C 
BRANCH  22  24
ATOM     23  C   LEU A   2      13.603 -30.339  38.665  0.00  0.00    +0.241 C 
ATOM     24  N   ASP A   3      14.149 -29.230  39.129  0.00  0.00    -0.297 N 
ATOM     25  H   ASP A   3      14.402 -29.172  40.136  0.00  0.00    +0.150 HD
ATOM     26  O   LEU A   2      13.522 -30.586  37.459  0.00  0.00    -0.273 OA
BRANCH  23  27
ATOM     27  CA  LEU A   2      13.011 -31.294  39.717  0.00  0.00    +0.149 C 
BRANCH  27  30
ATOM     28  C   LEU A   1      10.797 -30.339  39.977  0.00  0.00    +0.238 C 
ATOM     29  O   LEU A   1      11.210 -29.427  40.704  0.00  0.00    -0.274 OA
ATOM     30  N   LEU A   2      11.570 -31.335  39.559  0.00  0.00    -0.297 N 
ATOM     31  H   LEU A   2      11.132 -32.163  39.108  0.00  0.00    +0.150 HD
BRANCH  28  32
ATOM     32  CA  LEU A   1       9.327 -30.399  39.572  0.00  0.00    +0.145 C 
BRANCH  32  33
ATOM     33  N   LEU A   1       8.475 -30.341  40.751  0.00  0.00    -0.238 NA
ATOM     34  H   LEU A   1       8.119 -29.410  41.047  0.00  0.00    +0.142 HD
ENDBRANCH  32  33
BRANCH  32  35
ATOM     35  CB  LEU A   1       8.994 -29.175  38.705  0.00  0.00    +0.026 C 
BRANCH  35  36
ATOM     36  CG  LEU A   1       9.469 -29.138  37.257  0.00  0.00    +0.002 C 
ATOM     37  CD2 LEU A   1       8.879 -27.901  36.598  0.00  0.00    +0.000 C 
ATOM     38  CD1 LEU A   1       9.063 -30.386  36.494  0.00  0.00    +0.000 C 
ENDBRANCH  35  36
ENDBRANCH  32  35
ENDBRANCH  28  32
ENDBRANCH  27  30
BRANCH  27  39
ATOM     39  CB  LEU A   2      13.612 -32.690  39.551  0.00  0.00    +0.029 C 
BRANCH  39  40
ATOM     40  CG  LEU A   2      13.160 -33.770  40.529  0.00  0.00    +0.002 C 
ATOM     41  CD2 LEU A   2      13.220 -33.314  41.995  0.00  0.00    +0.000 C 
ATOM     42  CD1 LEU A   2      13.997 -35.011  40.328  0.00  0.00    +0.000 C 
ENDBRANCH  39  40
ENDBRANCH  27  39
ENDBRANCH  23  27
ENDBRANCH  22  24
BRANCH  22  43
ATOM     43  CB  ASP A   3      13.526 -26.915  38.678  0.00  0.00    +0.143 C 
BRANCH  43  44
ATOM     44  CG  ASP A   3      13.469 -25.830  37.619  0.00  0.00    +0.367 C 
ATOM     45  OD2 ASP A   3      12.589 -24.965  37.697  0.00  0.00    -0.246 OA
ATOM     46  OD1 ASP A   3      14.300 -25.847  36.704  0.00  0.00    -0.246 OA
ENDBRANCH  43  44
ENDBRANCH  22  43
ENDBRANCH  18  22
ENDBRANCH  17  20
BRANCH  17  47
ATOM     47  CB  THR A   4      18.911 -28.632  36.395  0.00  0.00    +0.137 C 
ATOM     48  CG2 THR A   4      18.886 -30.068  36.849  0.00  0.00    +0.034 C 
BRANCH  47  49
ATOM     49  OG1 THR A   4      18.370 -28.557  35.066  0.00  0.00    -0.382 OA
ATOM     50  HG1 THR A   4      18.406 -27.620  34.749  0.00  0.00    +0.210 HD
ENDBRANCH  47  49
ENDBRANCH  17  47
ENDBRANCH  13  17
ENDBRANCH  12  15
ENDBRANCH   8  12
ENDBRANCH   6   9
ENDBRANCH   2   6
ENDBRANCH   1   3
BRANCH   1  51
ATOM     51  C   ASP A   7      18.437 -22.559  43.394  0.00  0.00    +0.241 C 
ATOM     52  O   ASP A   7      19.109 -23.245  44.161  0.00  0.00    -0.273 OA
ATOM     53  N   ASP A   8      17.209 -22.139  43.673  0.00  0.00    -0.297 N 
ATOM     54  H   ASP A   8      16.673 -21.630  42.942  0.00  0.00    +0.150 HD
BRANCH  53  55
ATOM     55  CA  ASP A   8      16.588 -22.369  44.973  0.00  0.00    +0.160 C 
BRANCH  55  56
ATOM     56  C   ASP A   8      15.264 -23.104  44.798  0.00  0.00    +0.241 C 
ATOM     57  N   THR A   9      14.787 -23.679  45.889  0.00  0.00    -0.295 N 
ATOM     58  H   THR A   9      15.329 -23.590  46.772  0.00  0.00    +0.150 HD
ATOM     59  O   ASP A   8      14.669 -23.090  43.737  0.00  0.00    -0.273 OA
BRANCH  57  60
ATOM     60  CA  THR A   9      13.554 -24.423  45.914  0.00  0.00    +0.176 C 
BRANCH  60  61
ATOM     61  C   THR A   9      12.432 -23.456  46.277  0.00  0.00    +0.243 C 
ATOM     62  O   THR A   9      12.545 -22.709  47.248  0.00  0.00    -0.273 OA
ATOM     63  N   VAL A  10      11.372 -23.452  45.476  0.00  0.00    -0.297 N 
ATOM     64  H   VAL A  10      11.372 -24.090  44.654  0.00  0.00    +0.150 HD
BRANCH  63  65
ATOM     65  CA  VAL A  10      10.208 -22.598  45.691  0.00  0.00    +0.149 C 
BRANCH  65  66
ATOM     66  C   VAL A  10       8.949 -23.453  45.693  0.00  0.00    +0.241 C 
ATOM     67  N   LEU A  11       8.148 -23.341  46.747  0.00  0.00    -0.297 N 
ATOM     68  H   LEU A  11       8.439 -22.755  47.555  0.00  0.00    +0.150 HD
ATOM     69  O   VAL A  10       8.652 -24.118  44.710  0.00  0.00    -0.273 OA
BRANCH  67  70
ATOM     70  CA  LEU A  11       6.875 -24.026  46.782  0.00  0.00    +0.149 C 
BRANCH  70  71
ATOM     71  C   LEU A  11       5.736 -23.030  46.729  0.00  0.00    +0.241 C 
ATOM     72  O   LEU A  11       5.856 -21.883  47.171  0.00  0.00    -0.273 OA
ATOM     73  N   GLU A  12       4.665 -23.448  46.071  0.00  0.00    -0.298 N 
ATOM     74  H   GLU A  12       4.702 -24.363  45.578  0.00  0.00    +0.150 HD
BRANCH  73  75
ATOM     75  CA  GLU A  12       3.442 -22.670  46.017  0.00  0.00    +0.137 C 
BRANCH  75  76
ATOM     76  C   GLU A  12       2.992 -22.358  47.442  0.00  0.00    +0.227 C 
ATOM     77  O   GLU A  12       3.362 -23.048  48.389  0.00  0.00    -0.286 OA
ENDBRANCH  75  76
BRANCH  75  78
ATOM     78  CB  GLU A  12       2.355 -23.456  45.282  0.00  0.00    +0.039 C 
BRANCH  78  79
ATOM     79  CG  GLU A  12       2.636 -23.648  43.799  0.00  0.00    +0.116 C 
BRANCH  79  80
ATOM     80  CD  GLU A  12       1.731 -24.695  43.137  0.00  0.00    +0.365 C 
ATOM     81  OE2 GLU A  12       1.015 -25.424  43.860  0.00  0.00    -0.246 OA
ATOM     82  OE1 GLU A  12       1.726 -24.773  41.881  0.00  0.00    -0.246 OA
ENDBRANCH  79  80
ENDBRANCH  78  79
ENDBRANCH  75  78
ENDBRANCH  73  75
ENDBRANCH  70  71
BRANCH  70  83
ATOM     83  CB  LEU A  11       6.777 -24.922  48.014  0.00  0.00    +0.029 C 
BRANCH  83  84
ATOM     84  CG  LEU A  11       7.980 -25.858  48.181  0.00  0.00    +0.002 C 
ATOM     85  CD2 LEU A  11       7.920 -26.560  49.528  0.00  0.00    +0.000 C 
ATOM     86  CD1 LEU A  11       8.049 -26.874  47.052  0.00  0.00    +0.000 C 
ENDBRANCH  83  84
ENDBRANCH  70  83
ENDBRANCH  67  70
ENDBRANCH  65  66
BRANCH  65  87
ATOM     87  CB  VAL A  10       9.992 -21.592  44.524  0.00  0.00    +0.027 C 
ATOM     88  CG2 VAL A  10       9.039 -20.458  44.964  0.00  0.00    +0.002 C 
ATOM     89  CG1 VAL A  10      11.296 -21.055  44.032  0.00  0.00    +0.002 C 
ENDBRANCH  65  87
ENDBRANCH  63  65
ENDBRANCH  60  61
BRANCH  60  90
ATOM     90  CB  THR A   9      13.678 -25.535  46.969  0.00  0.00    +0.137 C 
ATOM     91  CG2 THR A   9      12.308 -26.190  47.261  0.00  0.00    +0.034 C 
BRANCH  90  92
ATOM     92  OG1 THR A   9      14.655 -26.501  46.542  0.00  0.00    -0.382 OA
ATOM     93  HG1 THR A   9      15.532 -26.055  46.430  0.00  0.00    +0.210 HD
ENDBRANCH  90  92
ENDBRANCH  60  90
ENDBRANCH  57  60
ENDBRANCH  55  56
BRANCH  55  94
ATOM     94  CB  ASP A   8      16.290 -21.055  45.719  0.00  0.00    +0.143 C 
BRANCH  94  95
ATOM     95  CG  ASP A   8      17.413 -20.036  45.635  0.00  0.00    +0.367 C 
ATOM     96  OD2 ASP A   8      18.592 -20.428  45.784  0.00  0.00    -0.246 OA
ATOM     97  OD1 ASP A   8      17.103 -18.824  45.490  0.00  0.00    -0.246 OA
ENDBRANCH  94  95
ENDBRANCH  55  94
ENDBRANCH  53  55
ENDBRANCH   1  51
BRANCH   1  98
ATOM     98  CB  ASP A   7      19.591 -20.595  42.468  0.00  0.00    +0.143 C 
BRANCH  98  99
ATOM     99  CG  ASP A   7      20.276 -19.910  41.314  0.00  0.00    +0.367 C 
ATOM    100  OD2 ASP A   7      20.445 -18.677  41.426  0.00  0.00    -0.246 OA
ATOM    101  OD1 ASP A   7      20.661 -20.578  40.329  0.00  0.00    -0.246 OA
ENDBRANCH  98  99
ENDBRANCH   1  98
TORSDOF 44
REMARK  Name = ../refined-set-2016/3ekp/3ekp_pocket.pdb
REMARK  229 active torsions:
REMARK  status: ('A' for Active; 'I' for Inactive)
REMARK    1  A    between atoms: _1  and  _3
REMARK    2  A    between atoms: _3  and  _4
REMARK    3  A    between atoms: _3  and  _6
REMARK    4  A    between atoms: _6  and  _7
REMARK    5  A    between atoms: _7  and  _8
REMARK    6  A    between atoms: _8  and  _9
REMARK    7  A    between atoms: _18  and  _20
REMARK    8  A    between atoms: _20  and  _21
REMARK    9  A    between atoms: _20  and  _23
REMARK   10  A    between atoms: _23  and  _24
REMARK   11  A    between atoms: _27  and  _29
REMARK   12  A    between atoms: _29  and  _30
REMARK   13  A    between atoms: _29  and  _32
REMARK   14  A    between atoms: _32  and  _33
REMARK   15  A    between atoms: _36  and  _38
REMARK   16  A    between atoms: _38  and  _39
REMARK   17  A    between atoms: _38  and  _41
REMARK   18  A    between atoms: _41  and  _42
REMARK   19  A    between atoms: _45  and  _47
REMARK   20  A    between atoms: _47  and  _48
REMARK   21  A    between atoms: _47  and  _50
REMARK   22  A    between atoms: _50  and  _51
REMARK   23  A    between atoms: _54  and  _56
REMARK   24  A    between atoms: _56  and  _57
REMARK   25  A    between atoms: _59  and  _61
REMARK   26  A    between atoms: _61  and  _62
REMARK   27  A    between atoms: _65  and  _67
REMARK   28  A    between atoms: _67  and  _68
REMARK   29  A    between atoms: _67  and  _70
REMARK   30  A    between atoms: _70  and  _71
REMARK   31  A    between atoms: _74  and  _76
REMARK   32  A    between atoms: _76  and  _77
REMARK   33  A    between atoms: _76  and  _79
REMARK   34  A    between atoms: _79  and  _80
REMARK   35  A    between atoms: _83  and  _85
REMARK   36  A    between atoms: _85  and  _86
REMARK   37  A    between atoms: _85  and  _88
REMARK   38  A    between atoms: _88  and  _89
REMARK   39  A    between atoms: _92  and  _94
REMARK   40  A    between atoms: _94  and  _95
REMARK   41  A    between atoms: _94  and  _97
REMARK   42  A    between atoms: _100  and  _102
REMARK   43  A    between atoms: _102  and  _103
REMARK   44  A    between atoms: _102  and  _105
REMARK   45  A    between atoms: _105  and  _106
REMARK   46  A    between atoms: _109  and  _111
REMARK   47  A    between atoms: _111  and  _112
REMARK   48  A    between atoms: _111  and  _114
REMARK   49  A    between atoms: _114  and  _115
REMARK   50  A    between atoms: _115  and  _116
REMARK   51  A    between atoms: _118  and  _120
REMARK   52  A    between atoms: _120  and  _121
REMARK   53  A    between atoms: _120  and  _123
REMARK   54  A    between atoms: _123  and  _124
REMARK   55  A    between atoms: _127  and  _129
REMARK   56  A    between atoms: _129  and  _130
REMARK   57  A    between atoms: _129  and  _132
REMARK   58  A    between atoms: _135  and  _137
REMARK   59  A    between atoms: _137  and  _138
REMARK   60  A    between atoms: _140  and  _142
REMARK   61  A    between atoms: _142  and  _143
REMARK   62  A    between atoms: _142  and  _145
REMARK   63  A    between atoms: _145  and  _146
REMARK   64  A    between atoms: _149  and  _151
REMARK   65  A    between atoms: _151  and  _152
REMARK   66  A    between atoms: _154  and  _156
REMARK   67  A    between atoms: _156  and  _157
REMARK   68  A    between atoms: _159  and  _161
REMARK   69  A    between atoms: _161  and  _162
REMARK   70  A    between atoms: _161  and  _164
REMARK   71  A    between atoms: _167  and  _169
REMARK   72  A    between atoms: _169  and  _170
REMARK   73  A    between atoms: _169  and  _172
REMARK   74  A    between atoms: _175  and  _177
REMARK   75  A    between atoms: _177  and  _178
REMARK   76  A    between atoms: _177  and  _180
REMARK   77  A    between atoms: _180  and  _181
REMARK   78  A    between atoms: _184  and  _186
REMARK   79  A    between atoms: _186  and  _187
REMARK   80  A    between atoms: _186  and  _189
REMARK   81  A    between atoms: _189  and  _190
REMARK   82  A    between atoms: _194  and  _195
REMARK   83  A    between atoms: _200  and  _202
REMARK   84  A    between atoms: _202  and  _203
REMARK   85  A    between atoms: _206  and  _208
REMARK   86  A    between atoms: _208  and  _209
REMARK   87  A    between atoms: _208  and  _211
REMARK   88  A    between atoms: _211  and  _212
REMARK   89  A    between atoms: _217  and  _219
REMARK   90  A    between atoms: _219  and  _220
REMARK   91  A    between atoms: _219  and  _222
REMARK   92  A    between atoms: _222  and  _223
REMARK   93  A    between atoms: _226  and  _228
REMARK   94  A    between atoms: _228  and  _229
REMARK   95  A    between atoms: _228  and  _231
REMARK   96  A    between atoms: _231  and  _232
REMARK   97  A    between atoms: _235  and  _237
REMARK   98  A    between atoms: _237  and  _238
REMARK   99  A    between atoms: _240  and  _242
REMARK  100  A    between atoms: _242  and  _243
REMARK  101  A    between atoms: _242  and  _245
REMARK  102  A    between atoms: _245  and  _246
REMARK  103  A    between atoms: _246  and  _247
REMARK  104  A    between atoms: _247  and  _248
REMARK  105  A    between atoms: _257  and  _259
REMARK  106  A    between atoms: _259  and  _260
REMARK  107  A    between atoms: _259  and  _262
REMARK  108  A    between atoms: _262  and  _263
REMARK  109  A    between atoms: _268  and  _270
REMARK  110  A    between atoms: _270  and  _271
REMARK  111  A    between atoms: _270  and  _273
REMARK  112  A    between atoms: _273  and  _274
REMARK  113  A    between atoms: _274  and  _275
REMARK  114  A    between atoms: _275  and  _276
REMARK  115  A    between atoms: _285  and  _287
REMARK  116  A    between atoms: _287  and  _288
REMARK  117  A    between atoms: _287  and  _290
REMARK  118  A    between atoms: _290  and  _291
REMARK  119  A    between atoms: _294  and  _296
REMARK  120  A    between atoms: _296  and  _297
REMARK  121  A    between atoms: _296  and  _299
REMARK  122  A    between atoms: _299  and  _300
REMARK  123  A    between atoms: _303  and  _305
REMARK  124  A    between atoms: _305  and  _306
REMARK  125  A    between atoms: _305  and  _308
REMARK  126  A    between atoms: _308  and  _309
REMARK  127  A    between atoms: _312  and  _314
REMARK  128  A    between atoms: _314  and  _315
REMARK  129  A    between atoms: _314  and  _317
REMARK  130  A    between atoms: _317  and  _318
REMARK  131  A    between atoms: _321  and  _323
REMARK  132  A    between atoms: _323  and  _324
REMARK  133  A    between atoms: _326  and  _328
REMARK  134  A    between atoms: _328  and  _329
REMARK  135  A    between atoms: _332  and  _334
REMARK  136  A    between atoms: _334  and  _335
REMARK  137  A    between atoms: _334  and  _337
REMARK  138  A    between atoms: _337  and  _338
REMARK  139  A    between atoms: _341  and  _343
REMARK  140  A    between atoms: _343  and  _344
REMARK  141  A    between atoms: _343  and  _346
REMARK  142  A    between atoms: _346  and  _347
REMARK  143  A    between atoms: _350  and  _352
REMARK  144  A    between atoms: _352  and  _353
REMARK  145  A    between atoms: _352  and  _355
REMARK  146  A    between atoms: _355  and  _356
REMARK  147  A    between atoms: _359  and  _361
REMARK  148  A    between atoms: _361  and  _362
REMARK  149  A    between atoms: _361  and  _364
REMARK  150  A    between atoms: _367  and  _369
REMARK  151  A    between atoms: _369  and  _370
REMARK  152  A    between atoms: _369  and  _372
REMARK  153  A    between atoms: _372  and  _373
REMARK  154  A    between atoms: _376  and  _378
REMARK  155  A    between atoms: _378  and  _379
REMARK  156  A    between atoms: _378  and  _381
REMARK  157  A    between atoms: _381  and  _382
REMARK  158  A    between atoms: _382  and  _383
REMARK  159  A    between atoms: _386  and  _388
REMARK  160  A    between atoms: _388  and  _389
REMARK  161  A    between atoms: _388  and  _391
REMARK  162  A    between atoms: _391  and  _392
REMARK  163  A    between atoms: _392  and  _393
REMARK  164  A    between atoms: _393  and  _394
REMARK  165  A    between atoms: _394  and  _395
REMARK  166  A    between atoms: _399  and  _401
REMARK  167  A    between atoms: _401  and  _402
REMARK  168  A    between atoms: _401  and  _404
REMARK  169  A    between atoms: _404  and  _405
REMARK  170  A    between atoms: _405  and  _406
REMARK  171  A    between atoms: _408  and  _410
REMARK  172  A    between atoms: _410  and  _411
REMARK  173  A    between atoms: _410  and  _413
REMARK  174  A    between atoms: _413  and  _414
REMARK  175  A    between atoms: _417  and  _419
REMARK  176  A    between atoms: _419  and  _420
REMARK  177  A    between atoms: _419  and  _422
REMARK  178  A    between atoms: _425  and  _427
REMARK  179  A    between atoms: _427  and  _428
REMARK  180  A    between atoms: _430  and  _432
REMARK  181  A    between atoms: _432  and  _433
REMARK  182  A    between atoms: _432  and  _435
REMARK  183  A    between atoms: _435  and  _436
REMARK  184  A    between atoms: _439  and  _441
REMARK  185  A    between atoms: _441  and  _442
REMARK  186  A    between atoms: _444  and  _446
REMARK  187  A    between atoms: _446  and  _447
REMARK  188  A    between atoms: _449  and  _451
REMARK  189  A    between atoms: _451  and  _452
REMARK  190  A    between atoms: _451  and  _454
REMARK  191  A    between atoms: _457  and  _459
REMARK  192  A    between atoms: _459  and  _460
REMARK  193  A    between atoms: _459  and  _462
REMARK  194  A    between atoms: _465  and  _467
REMARK  195  A    between atoms: _467  and  _468
REMARK  196  A    between atoms: _467  and  _470
REMARK  197  A    between atoms: _470  and  _471
REMARK  198  A    between atoms: _475  and  _476
REMARK  199  A    between atoms: _481  and  _483
REMARK  200  A    between atoms: _483  and  _484
REMARK  201  A    between atoms: _483  and  _486
REMARK  202  A    between atoms: _486  and  _487
REMARK  203  A    between atoms: _491  and  _492
REMARK  204  A    between atoms: _497  and  _499
REMARK  205  A    between atoms: _499  and  _500
REMARK  206  A    between atoms: _503  and  _505
REMARK  207  A    between atoms: _505  and  _506
REMARK  208  A    between atoms: _505  and  _508
REMARK  209  A    between atoms: _508  and  _509
REMARK  210  A    between atoms: _514  and  _516
REMARK  211  A    between atoms: _516  and  _517
REMARK  212  A    between atoms: _516  and  _519
REMARK  213  A    between atoms: _519  and  _520
REMARK  214  A    between atoms: _523  and  _525
REMARK  215  A    between atoms: _525  and  _526
REMARK  216  A    between atoms: _525  and  _528
REMARK  217  A    between atoms: _528  and  _529
REMARK  218  A    between atoms: _532  and  _534
REMARK  219  A    between atoms: _534  and  _535
REMARK  220  A    between atoms: _537  and  _539
REMARK  221  A    between atoms: _539  and  _540
REMARK  222  A    between atoms: _539  and  _542
REMARK  223  A    between atoms: _542  and  _543
REMARK  224  A    between atoms: _543  and  _544
REMARK  225  A    between atoms: _544  and  _545
REMARK  226  A    between atoms: _554  and  _556
REMARK  227  A    between atoms: _556  and  _557
REMARK  228  A    between atoms: _556  and  _559
REMARK  229  A    between atoms: _559  and  _560
REMARK                            x       y       z     vdW  Elec       q    Type
REMARK                         _______ _______ _______ _____ _____    ______ ____
ROOT
ATOM      1  C   ILE A   3      13.470 -13.634  41.638  0.00  0.00    +0.241 C 
ATOM      2  O   ILE A   3      12.565 -12.826  41.471  0.00  0.00    -0.273 OA
ATOM      3  N   VAL A   4      14.271 -14.030  40.657  0.00  0.00    -0.297 N 
ATOM      4  H   VAL A   4      15.096 -14.619  40.888  0.00  0.00    +0.150 HD
ENDROOT
BRANCH   1   5
ATOM      5  CA  ILE A   3      13.775 -14.188  43.029  0.00  0.00    +0.149 C 
BRANCH   5   8
ATOM      6  C   MET A   2      14.000 -12.692  44.895  0.00  0.00    +0.241 C 
ATOM      7  O   MET A   2      15.179 -12.991  45.030  0.00  0.00    -0.273 OA
ATOM      8  N   ILE A   3      13.204 -13.336  44.056  0.00  0.00    -0.297 N 
ATOM      9  H   ILE A   3      12.172 -13.232  44.133  0.00  0.00    +0.150 HD
BRANCH   6  10
ATOM     10  CA  MET A   2      13.362 -11.625  45.772  0.00  0.00    +0.149 C 
BRANCH  10  13
ATOM     11  C   LYS A   1      12.848 -12.326  48.023  0.00  0.00    +0.238 C 
ATOM     12  O   LYS A   1      11.663 -12.470  47.759  0.00  0.00    -0.274 OA
ATOM     13  N   MET A   2      13.735 -11.900  47.140  0.00  0.00    -0.297 N 
ATOM     14  H   MET A   2      14.722 -11.760  47.437  0.00  0.00    +0.150 HD
BRANCH  11  15
ATOM     15  CA  LYS A   1      13.395 -12.663  49.390  0.00  0.00    +0.145 C 
BRANCH  15  16
ATOM     16  N   LYS A   1      12.334 -12.582  50.379  0.00  0.00    -0.238 NA
ATOM     17  H   LYS A   1      11.394 -12.970  50.161  0.00  0.00    +0.142 HD
ENDBRANCH  15  16
BRANCH  15  18
ATOM     18  CB  LYS A   1      14.007 -14.055  49.368  0.00  0.00    +0.026 C 
BRANCH  18  19
ATOM     19  CG  LYS A   1      15.213 -14.163  48.467  0.00  0.00    -0.000 C 
BRANCH  19  20
ATOM     20  CD  LYS A   1      15.700 -15.592  48.342  0.00  0.00    -0.024 C 
BRANCH  20  21
ATOM     21  CE  LYS A   1      16.796 -15.725  47.281  0.00  0.00    -0.086 C 
BRANCH  21  22
ATOM     22  NZ  LYS A   1      17.726 -16.826  47.611  0.00  0.00    +0.380 N 
ATOM     23  HZ1 LYS A   1      18.174 -16.636  48.530  0.00  0.00    -0.089 HD
ATOM     24  HZ2 LYS A   1      17.199 -17.721  47.659  0.00  0.00    -0.089 HD
ATOM     25  HZ3 LYS A   1      18.458 -16.892  46.875  0.00  0.00    -0.089 HD
ENDBRANCH  21  22
ENDBRANCH  20  21
ENDBRANCH  19  20
ENDBRANCH  18  19
ENDBRANCH  15  18
ENDBRANCH  11  15
ENDBRANCH  10  13
BRANCH  10  26
ATOM     26  CB  MET A   2      13.849 -10.235  45.376  0.00  0.00    +0.041 C 
BRANCH  26  27
ATOM     27  CG  MET A   2      12.834  -9.470  44.553  0.00  0.00    +0.060 C 
BRANCH  27  28
ATOM     28  SD  MET A   2      11.409  -8.963  45.519  0.00  0.00    -0.139 S 
ATOM     29  CE  MET A   2      11.936  -7.382  46.146  0.00  0.00    +0.069 C 
ENDBRANCH  27  28
ENDBRANCH  26  27
ENDBRANCH  10  26
ENDBRANCH   6  10
ENDBRANCH   5   8
BRANCH   5  30
ATOM     30  CB  ILE A   3      13.323 -15.633  43.192  0.00  0.00    +0.027 C 
ATOM     31  CG2 ILE A   3      13.843 -16.207  44.514  0.00  0.00    +0.002 C 
BRANCH  30  32
ATOM     32  CG1 ILE A   3      11.811 -15.749  43.118  0.00  0.00    +0.002 C 
ATOM     33  CD1 ILE A   3      11.344 -17.162  43.003  0.00  0.00    +0.000 C 
ENDBRANCH  30  32
ENDBRANCH   5  30
ENDBRANCH   1   5
BRANCH   3  34
ATOM     34  CA  VAL A   4      14.029 -13.663  39.257  0.00  0.00    +0.149 C 
BRANCH  34  35
ATOM     35  C   VAL A   4      13.723 -14.895  38.440  0.00  0.00    +0.241 C 
ATOM     36  O   VAL A   4      14.465 -15.891  38.461  0.00  0.00    -0.273 OA
ATOM     37  N   GLY A   5      12.632 -14.810  37.693  0.00  0.00    -0.295 N 
ATOM     38  H   GLY A   5      11.963 -14.028  37.841  0.00  0.00    +0.150 HD
BRANCH  37  39
ATOM     39  CA  GLY A   5      12.368 -15.803  36.671  0.00  0.00    +0.176 C 
BRANCH  39  40
ATOM     40  C   GLY A   5      12.167 -15.162  35.324  0.00  0.00    +0.243 C 
ATOM     41  O   GLY A   5      12.532 -14.012  35.099  0.00  0.00    -0.273 OA
ATOM     42  N   ILE A   6      11.665 -15.954  34.389  0.00  0.00    -0.297 N 
ATOM     43  H   ILE A   6      11.690 -16.984  34.528  0.00  0.00    +0.150 HD
BRANCH  42  44
ATOM     44  CA  ILE A   6      11.082 -15.419  33.178  0.00  0.00    +0.149 C 
BRANCH  44  45
ATOM     45  C   ILE A   6       9.799 -14.702  33.585  0.00  0.00    +0.241 C 
ATOM     46  O   ILE A   6       9.025 -15.198  34.401  0.00  0.00    -0.273 OA
ATOM     47  N   GLY A   7       9.608 -13.494  33.081  0.00  0.00    -0.295 N 
ATOM     48  H   GLY A   7      10.267 -13.119  32.369  0.00  0.00    +0.150 HD
BRANCH  47  49
ATOM     49  CA  GLY A   7       8.481 -12.691  33.519  0.00  0.00    +0.176 C 
BRANCH  49  50
ATOM     50  C   GLY A   7       8.862 -11.697  34.602  0.00  0.00    +0.243 C 
ATOM     51  N   GLY A   8      10.008 -11.887  35.258  0.00  0.00    -0.296 N 
ATOM     52  H   GLY A   8      10.554 -12.762  35.121  0.00  0.00    +0.150 HD
ATOM     53  O   GLY A   7       8.126 -10.744  34.839  0.00  0.00    -0.273 OA
BRANCH  51  54
ATOM     54  CA  GLY A   8      10.487 -10.853  36.170  0.00  0.00    +0.163 C 
BRANCH  54  55
ATOM     55  C   GLY A   8      10.648 -11.289  37.619  0.00  0.00    +0.229 C 
ATOM     56  O   GLY A   8      10.832 -12.472  37.905  0.00  0.00    -0.286 OA
ENDBRANCH  54  55
ENDBRANCH  51  54
ENDBRANCH  49  50
ENDBRANCH  47  49
ENDBRANCH  44  45
BRANCH  44  57
ATOM     57  CB  ILE A   6      10.811 -16.547  32.167  0.00  0.00    +0.027 C 
ATOM     58  CG2 ILE A   6       9.836 -16.088  31.080  0.00  0.00    +0.002 C 
BRANCH  57  59
ATOM     59  CG1 ILE A   6      12.138 -16.998  31.547  0.00  0.00    +0.002 C 
ATOM     60  CD1 ILE A   6      12.007 -18.155  30.594  0.00  0.00    +0.000 C 
ENDBRANCH  57  59
ENDBRANCH  44  57
ENDBRANCH  42  44
ENDBRANCH  39  40
ENDBRANCH  37  39
ENDBRANCH  34  35
BRANCH  34  61
ATOM     61  CB  VAL A   4      15.230 -12.943  38.582  0.00  0.00    +0.027 C 
ATOM     62  CG2 VAL A   4      15.265 -11.508  38.997  0.00  0.00    +0.002 C 
ATOM     63  CG1 VAL A   4      16.557 -13.610  38.912  0.00  0.00    +0.002 C 
ENDBRANCH  34  61
ENDBRANCH   3  34
TORSDOF 29
REMARK  Name = ../refined-set-2016/3ekp/3ekp_pocket.pdb
REMARK  229 active torsions:
REMARK  status: ('A' for Active; 'I' for Inactive)
REMARK    1  A    between atoms: _1  and  _3
REMARK    2  A    between atoms: _3  and  _4
REMARK    3  A    between atoms: _3  and  _6
REMARK    4  A    between atoms: _6  and  _7
REMARK    5  A    between atoms: _7  and  _8
REMARK    6  A    between atoms: _8  and  _9
REMARK    7  A    between atoms: _18  and  _20
REMARK    8  A    between atoms: _20  and  _21
REMARK    9  A    between atoms: _20  and  _23
REMARK   10  A    between atoms: _23  and  _24
REMARK   11  A    between atoms: _27  and  _29
REMARK   12  A    between atoms: _29  and  _30
REMARK   13  A    between atoms: _29  and  _32
REMARK   14  A    between atoms: _32  and  _33
REMARK   15  A    between atoms: _36  and  _38
REMARK   16  A    between atoms: _38  and  _39
REMARK   17  A    between atoms: _38  and  _41
REMARK   18  A    between atoms: _41  and  _42
REMARK   19  A    between atoms: _45  and  _47
REMARK   20  A    between atoms: _47  and  _48
REMARK   21  A    between atoms: _47  and  _50
REMARK   22  A    between atoms: _50  and  _51
REMARK   23  A    between atoms: _54  and  _56
REMARK   24  A    between atoms: _56  and  _57
REMARK   25  A    between atoms: _59  and  _61
REMARK   26  A    between atoms: _61  and  _62
REMARK   27  A    between atoms: _65  and  _67
REMARK   28  A    between atoms: _67  and  _68
REMARK   29  A    between atoms: _67  and  _70
REMARK   30  A    between atoms: _70  and  _71
REMARK   31  A    between atoms: _74  and  _76
REMARK   32  A    between atoms: _76  and  _77
REMARK   33  A    between atoms: _76  and  _79
REMARK   34  A    between atoms: _79  and  _80
REMARK   35  A    between atoms: _83  and  _85
REMARK   36  A    between atoms: _85  and  _86
REMARK   37  A    between atoms: _85  and  _88
REMARK   38  A    between atoms: _88  and  _89
REMARK   39  A    between atoms: _92  and  _94
REMARK   40  A    between atoms: _94  and  _95
REMARK   41  A    between atoms: _94  and  _97
REMARK   42  A    between atoms: _100  and  _102
REMARK   43  A    between atoms: _102  and  _103
REMARK   44  A    between atoms: _102  and  _105
REMARK   45  A    between atoms: _105  and  _106
REMARK   46  A    between atoms: _109  and  _111
REMARK   47  A    between atoms: _111  and  _112
REMARK   48  A    between atoms: _111  and  _114
REMARK   49  A    between atoms: _114  and  _115
REMARK   50  A    between atoms: _115  and  _116
REMARK   51  A    between atoms: _118  and  _120
REMARK   52  A    between atoms: _120  and  _121
REMARK   53  A    between atoms: _120  and  _123
REMARK   54  A    between atoms: _123  and  _124
REMARK   55  A    between atoms: _127  and  _129
REMARK   56  A    between atoms: _129  and  _130
REMARK   57  A    between atoms: _129  and  _132
REMARK   58  A    between atoms: _135  and  _137
REMARK   59  A    between atoms: _137  and  _138
REMARK   60  A    between atoms: _140  and  _142
REMARK   61  A    between atoms: _142  and  _143
REMARK   62  A    between atoms: _142  and  _145
REMARK   63  A    between atoms: _145  and  _146
REMARK   64  A    between atoms: _149  and  _151
REMARK   65  A    between atoms: _151  and  _152
REMARK   66  A    between atoms: _154  and  _156
REMARK   67  A    between atoms: _156  and  _157
REMARK   68  A    between atoms: _159  and  _161
REMARK   69  A    between atoms: _161  and  _162
REMARK   70  A    between atoms: _161  and  _164
REMARK   71  A    between atoms: _167  and  _169
REMARK   72  A    between atoms: _169  and  _170
REMARK   73  A    between atoms: _169  and  _172
REMARK   74  A    between atoms: _175  and  _177
REMARK   75  A    between atoms: _177  and  _178
REMARK   76  A    between atoms: _177  and  _180
REMARK   77  A    between atoms: _180  and  _181
REMARK   78  A    between atoms: _184  and  _186
REMARK   79  A    between atoms: _186  and  _187
REMARK   80  A    between atoms: _186  and  _189
REMARK   81  A    between atoms: _189  and  _190
REMARK   82  A    between atoms: _194  and  _195
REMARK   83  A    between atoms: _200  and  _202
REMARK   84  A    between atoms: _202  and  _203
REMARK   85  A    between atoms: _206  and  _208
REMARK   86  A    between atoms: _208  and  _209
REMARK   87  A    between atoms: _208  and  _211
REMARK   88  A    between atoms: _211  and  _212
REMARK   89  A    between atoms: _217  and  _219
REMARK   90  A    between atoms: _219  and  _220
REMARK   91  A    between atoms: _219  and  _222
REMARK   92  A    between atoms: _222  and  _223
REMARK   93  A    between atoms: _226  and  _228
REMARK   94  A    between atoms: _228  and  _229
REMARK   95  A    between atoms: _228  and  _231
REMARK   96  A    between atoms: _231  and  _232
REMARK   97  A    between atoms: _235  and  _237
REMARK   98  A    between atoms: _237  and  _238
REMARK   99  A    between atoms: _240  and  _242
REMARK  100  A    between atoms: _242  and  _243
REMARK  101  A    between atoms: _242  and  _245
REMARK  102  A    between atoms: _245  and  _246
REMARK  103  A    between atoms: _246  and  _247
REMARK  104  A    between atoms: _247  and  _248
REMARK  105  A    between atoms: _257  and  _259
REMARK  106  A    between atoms: _259  and  _260
REMARK  107  A    between atoms: _259  and  _262
REMARK  108  A    between atoms: _262  and  _263
REMARK  109  A    between atoms: _268  and  _270
REMARK  110  A    between atoms: _270  and  _271
REMARK  111  A    between atoms: _270  and  _273
REMARK  112  A    between atoms: _273  and  _274
REMARK  113  A    between atoms: _274  and  _275
REMARK  114  A    between atoms: _275  and  _276
REMARK  115  A    between atoms: _285  and  _287
REMARK  116  A    between atoms: _287  and  _288
REMARK  117  A    between atoms: _287  and  _290
REMARK  118  A    between atoms: _290  and  _291
REMARK  119  A    between atoms: _294  and  _296
REMARK  120  A    between atoms: _296  and  _297
REMARK  121  A    between atoms: _296  and  _299
REMARK  122  A    between atoms: _299  and  _300
REMARK  123  A    between atoms: _303  and  _305
REMARK  124  A    between atoms: _305  and  _306
REMARK  125  A    between atoms: _305  and  _308
REMARK  126  A    between atoms: _308  and  _309
REMARK  127  A    between atoms: _312  and  _314
REMARK  128  A    between atoms: _314  and  _315
REMARK  129  A    between atoms: _314  and  _317
REMARK  130  A    between atoms: _317  and  _318
REMARK  131  A    between atoms: _321  and  _323
REMARK  132  A    between atoms: _323  and  _324
REMARK  133  A    between atoms: _326  and  _328
REMARK  134  A    between atoms: _328  and  _329
REMARK  135  A    between atoms: _332  and  _334
REMARK  136  A    between atoms: _334  and  _335
REMARK  137  A    between atoms: _334  and  _337
REMARK  138  A    between atoms: _337  and  _338
REMARK  139  A    between atoms: _341  and  _343
REMARK  140  A    between atoms: _343  and  _344
REMARK  141  A    between atoms: _343  and  _346
REMARK  142  A    between atoms: _346  and  _347
REMARK  143  A    between atoms: _350  and  _352
REMARK  144  A    between atoms: _352  and  _353
REMARK  145  A    between atoms: _352  and  _355
REMARK  146  A    between atoms: _355  and  _356
REMARK  147  A    between atoms: _359  and  _361
REMARK  148  A    between atoms: _361  and  _362
REMARK  149  A    between atoms: _361  and  _364
REMARK  150  A    between atoms: _367  and  _369
REMARK  151  A    between atoms: _369  and  _370
REMARK  152  A    between atoms: _369  and  _372
REMARK  153  A    between atoms: _372  and  _373
REMARK  154  A    between atoms: _376  and  _378
REMARK  155  A    between atoms: _378  and  _379
REMARK  156  A    between atoms: _378  and  _381
REMARK  157  A    between atoms: _381  and  _382
REMARK  158  A    between atoms: _382  and  _383
REMARK  159  A    between atoms: _386  and  _388
REMARK  160  A    between atoms: _388  and  _389
REMARK  161  A    between atoms: _388  and  _391
REMARK  162  A    between atoms: _391  and  _392
REMARK  163  A    between atoms: _392  and  _393
REMARK  164  A    between atoms: _393  and  _394
REMARK  165  A    between atoms: _394  and  _395
REMARK  166  A    between atoms: _399  and  _401
REMARK  167  A    between atoms: _401  and  _402
REMARK  168  A    between atoms: _401  and  _404
REMARK  169  A    between atoms: _404  and  _405
REMARK  170  A    between atoms: _405  and  _406
REMARK  171  A    between atoms: _408  and  _410
REMARK  172  A    between atoms: _410  and  _411
REMARK  173  A    between atoms: _410  and  _413
REMARK  174  A    between atoms: _413  and  _414
REMARK  175  A    between atoms: _417  and  _419
REMARK  176  A    between atoms: _419  and  _420
REMARK  177  A    between atoms: _419  and  _422
REMARK  178  A    between atoms: _425  and  _427
REMARK  179  A    between atoms: _427  and  _428
REMARK  180  A    between atoms: _430  and  _432
REMARK  181  A    between atoms: _432  and  _433
REMARK  182  A    between atoms: _432  and  _435
REMARK  183  A    between atoms: _435  and  _436
REMARK  184  A    between atoms: _439  and  _441
REMARK  185  A    between atoms: _441  and  _442
REMARK  186  A    between atoms: _444  and  _446
REMARK  187  A    between atoms: _446  and  _447
REMARK  188  A    between atoms: _449  and  _451
REMARK  189  A    between atoms: _451  and  _452
REMARK  190  A    between atoms: _451  and  _454
REMARK  191  A    between atoms: _457  and  _459
REMARK  192  A    between atoms: _459  and  _460
REMARK  193  A    between atoms: _459  and  _462
REMARK  194  A    between atoms: _465  and  _467
REMARK  195  A    between atoms: _467  and  _468
REMARK  196  A    between atoms: _467  and  _470
REMARK  197  A    between atoms: _470  and  _471
REMARK  198  A    between atoms: _475  and  _476
REMARK  199  A    between atoms: _481  and  _483
REMARK  200  A    between atoms: _483  and  _484
REMARK  201  A    between atoms: _483  and  _486
REMARK  202  A    between atoms: _486  and  _487
REMARK  203  A    between atoms: _491  and  _492
REMARK  204  A    between atoms: _497  and  _499
REMARK  205  A    between atoms: _499  and  _500
REMARK  206  A    between atoms: _503  and  _505
REMARK  207  A    between atoms: _505  and  _506
REMARK  208  A    between atoms: _505  and  _508
REMARK  209  A    between atoms: _508  and  _509
REMARK  210  A    between atoms: _514  and  _516
REMARK  211  A    between atoms: _516  and  _517
REMARK  212  A    between atoms: _516  and  _519
REMARK  213  A    between atoms: _519  and  _520
REMARK  214  A    between atoms: _523  and  _525
REMARK  215  A    between atoms: _525  and  _526
REMARK  216  A    between atoms: _525  and  _528
REMARK  217  A    between atoms: _528  and  _529
REMARK  218  A    between atoms: _532  and  _534
REMARK  219  A    between atoms: _534  and  _535
REMARK  220  A    between atoms: _537  and  _539
REMARK  221  A    between atoms: _539  and  _540
REMARK  222  A    between atoms: _539  and  _542
REMARK  223  A    between atoms: _542  and  _543
REMARK  224  A    between atoms: _543  and  _544
REMARK  225  A    between atoms: _544  and  _545
REMARK  226  A    between atoms: _554  and  _556
REMARK  227  A    between atoms: _556  and  _557
REMARK  228  A    between atoms: _556  and  _559
REMARK  229  A    between atoms: _559  and  _560
REMARK                            x       y       z     vdW  Elec       q    Type
REMARK                         _______ _______ _______ _____ _____    ______ ____
ROOT
ATOM      1  CA  VAL A   1       8.828 -12.337  42.511  0.00  0.00    +0.133 C 
ENDROOT
BRANCH   1   2
ATOM      2  CB  VAL A   1       8.373 -13.762  42.096  0.00  0.00    +0.023 C 
ATOM      3  CG2 VAL A   1       7.361 -14.331  43.084  0.00  0.00    +0.002 C 
ATOM      4  CG1 VAL A   1       7.790 -13.724  40.674  0.00  0.00    +0.002 C 
ENDBRANCH   1   2
BRANCH   1   5
ATOM      5  N   VAL A   1       9.896 -11.883  41.632  0.00  0.00    -0.239 NA
ATOM      6  H   VAL A   1      10.843 -12.300  41.734  0.00  0.00    +0.142 HD
ENDBRANCH   1   5
BRANCH   1   7
ATOM      7  C   VAL A   1       9.289 -12.309  43.976  0.00  0.00    +0.224 C 
ATOM      8  O   VAL A   1      10.389 -12.787  44.295  0.00  0.00    -0.287 OA
ENDBRANCH   1   7
TORSDOF 3
REMARK  Name = ../refined-set-2016/3ekp/3ekp_pocket.pdb
REMARK  229 active torsions:
REMARK  status: ('A' for Active; 'I' for Inactive)
REMARK    1  A    between atoms: _1  and  _3
REMARK    2  A    between atoms: _3  and  _4
REMARK    3  A    between atoms: _3  and  _6
REMARK    4  A    between atoms: _6  and  _7
REMARK    5  A    between atoms: _7  and  _8
REMARK    6  A    between atoms: _8  and  _9
REMARK    7  A    between atoms: _18  and  _20
REMARK    8  A    between atoms: _20  and  _21
REMARK    9  A    between atoms: _20  and  _23
REMARK   10  A    between atoms: _23  and  _24
REMARK   11  A    between atoms: _27  and  _29
REMARK   12  A    between atoms: _29  and  _30
REMARK   13  A    between atoms: _29  and  _32
REMARK   14  A    between atoms: _32  and  _33
REMARK   15  A    between atoms: _36  and  _38
REMARK   16  A    between atoms: _38  and  _39
REMARK   17  A    between atoms: _38  and  _41
REMARK   18  A    between atoms: _41  and  _42
REMARK   19  A    between atoms: _45  and  _47
REMARK   20  A    between atoms: _47  and  _48
REMARK   21  A    between atoms: _47  and  _50
REMARK   22  A    between atoms: _50  and  _51
REMARK   23  A    between atoms: _54  and  _56
REMARK   24  A    between atoms: _56  and  _57
REMARK   25  A    between atoms: _59  and  _61
REMARK   26  A    between atoms: _61  and  _62
REMARK   27  A    between atoms: _65  and  _67
REMARK   28  A    between atoms: _67  and  _68
REMARK   29  A    between atoms: _67  and  _70
REMARK   30  A    between atoms: _70  and  _71
REMARK   31  A    between atoms: _74  and  _76
REMARK   32  A    between atoms: _76  and  _77
REMARK   33  A    between atoms: _76  and  _79
REMARK   34  A    between atoms: _79  and  _80
REMARK   35  A    between atoms: _83  and  _85
REMARK   36  A    between atoms: _85  and  _86
REMARK   37  A    between atoms: _85  and  _88
REMARK   38  A    between atoms: _88  and  _89
REMARK   39  A    between atoms: _92  and  _94
REMARK   40  A    between atoms: _94  and  _95
REMARK   41  A    between atoms: _94  and  _97
REMARK   42  A    between atoms: _100  and  _102
REMARK   43  A    between atoms: _102  and  _103
REMARK   44  A    between atoms: _102  and  _105
REMARK   45  A    between atoms: _105  and  _106
REMARK   46  A    between atoms: _109  and  _111
REMARK   47  A    between atoms: _111  and  _112
REMARK   48  A    between atoms: _111  and  _114
REMARK   49  A    between atoms: _114  and  _115
REMARK   50  A    between atoms: _115  and  _116
REMARK   51  A    between atoms: _118  and  _120
REMARK   52  A    between atoms: _120  and  _121
REMARK   53  A    between atoms: _120  and  _123
REMARK   54  A    between atoms: _123  and  _124
REMARK   55  A    between atoms: _127  and  _129
REMARK   56  A    between atoms: _129  and  _130
REMARK   57  A    between atoms: _129  and  _132
REMARK   58  A    between atoms: _135  and  _137
REMARK   59  A    between atoms: _137  and  _138
REMARK   60  A    between atoms: _140  and  _142
REMARK   61  A    between atoms: _142  and  _143
REMARK   62  A    between atoms: _142  and  _145
REMARK   63  A    between atoms: _145  and  _146
REMARK   64  A    between atoms: _149  and  _151
REMARK   65  A    between atoms: _151  and  _152
REMARK   66  A    between atoms: _154  and  _156
REMARK   67  A    between atoms: _156  and  _157
REMARK   68  A    between atoms: _159  and  _161
REMARK   69  A    between atoms: _161  and  _162
REMARK   70  A    between atoms: _161  and  _164
REMARK   71  A    between atoms: _167  and  _169
REMARK   72  A    between atoms: _169  and  _170
REMARK   73  A    between atoms: _169  and  _172
REMARK   74  A    between atoms: _175  and  _177
REMARK   75  A    between atoms: _177  and  _178
REMARK   76  A    between atoms: _177  and  _180
REMARK   77  A    between atoms: _180  and  _181
REMARK   78  A    between atoms: _184  and  _186
REMARK   79  A    between atoms: _186  and  _187
REMARK   80  A    between atoms: _186  and  _189
REMARK   81  A    between atoms: _189  and  _190
REMARK   82  A    between atoms: _194  and  _195
REMARK   83  A    between atoms: _200  and  _202
REMARK   84  A    between atoms: _202  and  _203
REMARK   85  A    between atoms: _206  and  _208
REMARK   86  A    between atoms: _208  and  _209
REMARK   87  A    between atoms: _208  and  _211
REMARK   88  A    between atoms: _211  and  _212
REMARK   89  A    between atoms: _217  and  _219
REMARK   90  A    between atoms: _219  and  _220
REMARK   91  A    between atoms: _219  and  _222
REMARK   92  A    between atoms: _222  and  _223
REMARK   93  A    between atoms: _226  and  _228
REMARK   94  A    between atoms: _228  and  _229
REMARK   95  A    between atoms: _228  and  _231
REMARK   96  A    between atoms: _231  and  _232
REMARK   97  A    between atoms: _235  and  _237
REMARK   98  A    between atoms: _237  and  _238
REMARK   99  A    between atoms: _240  and  _242
REMARK  100  A    between atoms: _242  and  _243
REMARK  101  A    between atoms: _242  and  _245
REMARK  102  A    between atoms: _245  and  _246
REMARK  103  A    between atoms: _246  and  _247
REMARK  104  A    between atoms: _247  and  _248
REMARK  105  A    between atoms: _257  and  _259
REMARK  106  A    between atoms: _259  and  _260
REMARK  107  A    between atoms: _259  and  _262
REMARK  108  A    between atoms: _262  and  _263
REMARK  109  A    between atoms: _268  and  _270
REMARK  110  A    between atoms: _270  and  _271
REMARK  111  A    between atoms: _270  and  _273
REMARK  112  A    between atoms: _273  and  _274
REMARK  113  A    between atoms: _274  and  _275
REMARK  114  A    between atoms: _275  and  _276
REMARK  115  A    between atoms: _285  and  _287
REMARK  116  A    between atoms: _287  and  _288
REMARK  117  A    between atoms: _287  and  _290
REMARK  118  A    between atoms: _290  and  _291
REMARK  119  A    between atoms: _294  and  _296
REMARK  120  A    between atoms: _296  and  _297
REMARK  121  A    between atoms: _296  and  _299
REMARK  122  A    between atoms: _299  and  _300
REMARK  123  A    between atoms: _303  and  _305
REMARK  124  A    between atoms: _305  and  _306
REMARK  125  A    between atoms: _305  and  _308
REMARK  126  A    between atoms: _308  and  _309
REMARK  127  A    between atoms: _312  and  _314
REMARK  128  A    between atoms: _314  and  _315
REMARK  129  A    between atoms: _314  and  _317
REMARK  130  A    between atoms: _317  and  _318
REMARK  131  A    between atoms: _321  and  _323
REMARK  132  A    between atoms: _323  and  _324
REMARK  133  A    between atoms: _326  and  _328
REMARK  134  A    between atoms: _328  and  _329
REMARK  135  A    between atoms: _332  and  _334
REMARK  136  A    between atoms: _334  and  _335
REMARK  137  A    between atoms: _334  and  _337
REMARK  138  A    between atoms: _337  and  _338
REMARK  139  A    between atoms: _341  and  _343
REMARK  140  A    between atoms: _343  and  _344
REMARK  141  A    between atoms: _343  and  _346
REMARK  142  A    between atoms: _346  and  _347
REMARK  143  A    between atoms: _350  and  _352
REMARK  144  A    between atoms: _352  and  _353
REMARK  145  A    between atoms: _352  and  _355
REMARK  146  A    between atoms: _355  and  _356
REMARK  147  A    between atoms: _359  and  _361
REMARK  148  A    between atoms: _361  and  _362
REMARK  149  A    between atoms: _361  and  _364
REMARK  150  A    between atoms: _367  and  _369
REMARK  151  A    between atoms: _369  and  _370
REMARK  152  A    between atoms: _369  and  _372
REMARK  153  A    between atoms: _372  and  _373
REMARK  154  A    between atoms: _376  and  _378
REMARK  155  A    between atoms: _378  and  _379
REMARK  156  A    between atoms: _378  and  _381
REMARK  157  A    between atoms: _381  and  _382
REMARK  158  A    between atoms: _382  and  _383
REMARK  159  A    between atoms: _386  and  _388
REMARK  160  A    between atoms: _388  and  _389
REMARK  161  A    between atoms: _388  and  _391
REMARK  162  A    between atoms: _391  and  _392
REMARK  163  A    between atoms: _392  and  _393
REMARK  164  A    between atoms: _393  and  _394
REMARK  165  A    between atoms: _394  and  _395
REMARK  166  A    between atoms: _399  and  _401
REMARK  167  A    between atoms: _401  and  _402
REMARK  168  A    between atoms: _401  and  _404
REMARK  169  A    between atoms: _404  and  _405
REMARK  170  A    between atoms: _405  and  _406
REMARK  171  A    between atoms: _408  and  _410
REMARK  172  A    between atoms: _410  and  _411
REMARK  173  A    between atoms: _410  and  _413
REMARK  174  A    between atoms: _413  and  _414
REMARK  175  A    between atoms: _417  and  _419
REMARK  176  A    between atoms: _419  and  _420
REMARK  177  A    between atoms: _419  and  _422
REMARK  178  A    between atoms: _425  and  _427
REMARK  179  A    between atoms: _427  and  _428
REMARK  180  A    between atoms: _430  and  _432
REMARK  181  A    between atoms: _432  and  _433
REMARK  182  A    between atoms: _432  and  _435
REMARK  183  A    between atoms: _435  and  _436
REMARK  184  A    between atoms: _439  and  _441
REMARK  185  A    between atoms: _441  and  _442
REMARK  186  A    between atoms: _444  and  _446
REMARK  187  A    between atoms: _446  and  _447
REMARK  188  A    between atoms: _449  and  _451
REMARK  189  A    between atoms: _451  and  _452
REMARK  190  A    between atoms: _451  and  _454
REMARK  191  A    between atoms: _457  and  _459
REMARK  192  A    between atoms: _459  and  _460
REMARK  193  A    between atoms: _459  and  _462
REMARK  194  A    between atoms: _465  and  _467
REMARK  195  A    between atoms: _467  and  _468
REMARK  196  A    between atoms: _467  and  _470
REMARK  197  A    between atoms: _470  and  _471
REMARK  198  A    between atoms: _475  and  _476
REMARK  199  A    between atoms: _481  and  _483
REMARK  200  A    between atoms: _483  and  _484
REMARK  201  A    between atoms: _483  and  _486
REMARK  202  A    between atoms: _486  and  _487
REMARK  203  A    between atoms: _491  and  _492
REMARK  204  A    between atoms: _497  and  _499
REMARK  205  A    between atoms: _499  and  _500
REMARK  206  A    between atoms: _503  and  _505
REMARK  207  A    between atoms: _505  and  _506
REMARK  208  A    between atoms: _505  and  _508
REMARK  209  A    between atoms: _508  and  _509
REMARK  210  A    between atoms: _514  and  _516
REMARK  211  A    between atoms: _516  and  _517
REMARK  212  A    between atoms: _516  and  _519
REMARK  213  A    between atoms: _519  and  _520
REMARK  214  A    between atoms: _523  and  _525
REMARK  215  A    between atoms: _525  and  _526
REMARK  216  A    between atoms: _525  and  _528
REMARK  217  A    between atoms: _528  and  _529
REMARK  218  A    between atoms: _532  and  _534
REMARK  219  A    between atoms: _534  and  _535
REMARK  220  A    between atoms: _537  and  _539
REMARK  221  A    between atoms: _539  and  _540
REMARK  222  A    between atoms: _539  and  _542
REMARK  223  A    between atoms: _542  and  _543
REMARK  224  A    between atoms: _543  and  _544
REMARK  225  A    between atoms: _544  and  _545
REMARK  226  A    between atoms: _554  and  _556
REMARK  227  A    between atoms: _556  and  _557
REMARK  228  A    between atoms: _556  and  _559
REMARK  229  A    between atoms: _559  and  _560
REMARK                            x       y       z     vdW  Elec       q    Type
REMARK                         _______ _______ _______ _____ _____    ______ ____
ROOT
ATOM      1  CA  VAL A   1       8.756 -14.852  48.336  0.00  0.00    +0.133 C 
ENDROOT
BRANCH   1   2
ATOM      2  CB  VAL A   1       9.372 -16.078  47.596  0.00  0.00    +0.023 C 
ATOM      3  CG2 VAL A   1      10.867 -15.999  47.570  0.00  0.00    +0.002 C 
ATOM      4  CG1 VAL A   1       8.824 -16.191  46.189  0.00  0.00    +0.002 C 
ENDBRANCH   1   2
BRANCH   1   5
ATOM      5  N   VAL A   1       9.101 -13.618  47.663  0.00  0.00    -0.239 NA
ATOM      6  H   VAL A   1      10.070 -13.250  47.746  0.00  0.00    +0.142 HD
ENDBRANCH   1   5
BRANCH   1   7
ATOM      7  C   VAL A   1       9.227 -14.806  49.792  0.00  0.00    +0.224 C 
ATOM      8  O   VAL A   1      10.035 -13.964  50.173  0.00  0.00    -0.287 OA
ENDBRANCH   1   7
TORSDOF 3
REMARK  Name = ../refined-set-2016/3ekp/3ekp_pocket.pdb
REMARK  229 active torsions:
REMARK  status: ('A' for Active; 'I' for Inactive)
REMARK    1  A    between atoms: _1  and  _3
REMARK    2  A    between atoms: _3  and  _4
REMARK    3  A    between atoms: _3  and  _6
REMARK    4  A    between atoms: _6  and  _7
REMARK    5  A    between atoms: _7  and  _8
REMARK    6  A    between atoms: _8  and  _9
REMARK    7  A    between atoms: _18  and  _20
REMARK    8  A    between atoms: _20  and  _21
REMARK    9  A    between atoms: _20  and  _23
REMARK   10  A    between atoms: _23  and  _24
REMARK   11  A    between atoms: _27  and  _29
REMARK   12  A    between atoms: _29  and  _30
REMARK   13  A    between atoms: _29  and  _32
REMARK   14  A    between atoms: _32  and  _33
REMARK   15  A    between atoms: _36  and  _38
REMARK   16  A    between atoms: _38  and  _39
REMARK   17  A    between atoms: _38  and  _41
REMARK   18  A    between atoms: _41  and  _42
REMARK   19  A    between atoms: _45  and  _47
REMARK   20  A    between atoms: _47  and  _48
REMARK   21  A    between atoms: _47  and  _50
REMARK   22  A    between atoms: _50  and  _51
REMARK   23  A    between atoms: _54  and  _56
REMARK   24  A    between atoms: _56  and  _57
REMARK   25  A    between atoms: _59  and  _61
REMARK   26  A    between atoms: _61  and  _62
REMARK   27  A    between atoms: _65  and  _67
REMARK   28  A    between atoms: _67  and  _68
REMARK   29  A    between atoms: _67  and  _70
REMARK   30  A    between atoms: _70  and  _71
REMARK   31  A    between atoms: _74  and  _76
REMARK   32  A    between atoms: _76  and  _77
REMARK   33  A    between atoms: _76  and  _79
REMARK   34  A    between atoms: _79  and  _80
REMARK   35  A    between atoms: _83  and  _85
REMARK   36  A    between atoms: _85  and  _86
REMARK   37  A    between atoms: _85  and  _88
REMARK   38  A    between atoms: _88  and  _89
REMARK   39  A    between atoms: _92  and  _94
REMARK   40  A    between atoms: _94  and  _95
REMARK   41  A    between atoms: _94  and  _97
REMARK   42  A    between atoms: _100  and  _102
REMARK   43  A    between atoms: _102  and  _103
REMARK   44  A    between atoms: _102  and  _105
REMARK   45  A    between atoms: _105  and  _106
REMARK   46  A    between atoms: _109  and  _111
REMARK   47  A    between atoms: _111  and  _112
REMARK   48  A    between atoms: _111  and  _114
REMARK   49  A    between atoms: _114  and  _115
REMARK   50  A    between atoms: _115  and  _116
REMARK   51  A    between atoms: _118  and  _120
REMARK   52  A    between atoms: _120  and  _121
REMARK   53  A    between atoms: _120  and  _123
REMARK   54  A    between atoms: _123  and  _124
REMARK   55  A    between atoms: _127  and  _129
REMARK   56  A    between atoms: _129  and  _130
REMARK   57  A    between atoms: _129  and  _132
REMARK   58  A    between atoms: _135  and  _137
REMARK   59  A    between atoms: _137  and  _138
REMARK   60  A    between atoms: _140  and  _142
REMARK   61  A    between atoms: _142  and  _143
REMARK   62  A    between atoms: _142  and  _145
REMARK   63  A    between atoms: _145  and  _146
REMARK   64  A    between atoms: _149  and  _151
REMARK   65  A    between atoms: _151  and  _152
REMARK   66  A    between atoms: _154  and  _156
REMARK   67  A    between atoms: _156  and  _157
REMARK   68  A    between atoms: _159  and  _161
REMARK   69  A    between atoms: _161  and  _162
REMARK   70  A    between atoms: _161  and  _164
REMARK   71  A    between atoms: _167  and  _169
REMARK   72  A    between atoms: _169  and  _170
REMARK   73  A    between atoms: _169  and  _172
REMARK   74  A    between atoms: _175  and  _177
REMARK   75  A    between atoms: _177  and  _178
REMARK   76  A    between atoms: _177  and  _180
REMARK   77  A    between atoms: _180  and  _181
REMARK   78  A    between atoms: _184  and  _186
REMARK   79  A    between atoms: _186  and  _187
REMARK   80  A    between atoms: _186  and  _189
REMARK   81  A    between atoms: _189  and  _190
REMARK   82  A    between atoms: _194  and  _195
REMARK   83  A    between atoms: _200  and  _202
REMARK   84  A    between atoms: _202  and  _203
REMARK   85  A    between atoms: _206  and  _208
REMARK   86  A    between atoms: _208  and  _209
REMARK   87  A    between atoms: _208  and  _211
REMARK   88  A    between atoms: _211  and  _212
REMARK   89  A    between atoms: _217  and  _219
REMARK   90  A    between atoms: _219  and  _220
REMARK   91  A    between atoms: _219  and  _222
REMARK   92  A    between atoms: _222  and  _223
REMARK   93  A    between atoms: _226  and  _228
REMARK   94  A    between atoms: _228  and  _229
REMARK   95  A    between atoms: _228  and  _231
REMARK   96  A    between atoms: _231  and  _232
REMARK   97  A    between atoms: _235  and  _237
REMARK   98  A    between atoms: _237  and  _238
REMARK   99  A    between atoms: _240  and  _242
REMARK  100  A    between atoms: _242  and  _243
REMARK  101  A    between atoms: _242  and  _245
REMARK  102  A    between atoms: _245  and  _246
REMARK  103  A    between atoms: _246  and  _247
REMARK  104  A    between atoms: _247  and  _248
REMARK  105  A    between atoms: _257  and  _259
REMARK  106  A    between atoms: _259  and  _260
REMARK  107  A    between atoms: _259  and  _262
REMARK  108  A    between atoms: _262  and  _263
REMARK  109  A    between atoms: _268  and  _270
REMARK  110  A    between atoms: _270  and  _271
REMARK  111  A    between atoms: _270  and  _273
REMARK  112  A    between atoms: _273  and  _274
REMARK  113  A    between atoms: _274  and  _275
REMARK  114  A    between atoms: _275  and  _276
REMARK  115  A    between atoms: _285  and  _287
REMARK  116  A    between atoms: _287  and  _288
REMARK  117  A    between atoms: _287  and  _290
REMARK  118  A    between atoms: _290  and  _291
REMARK  119  A    between atoms: _294  and  _296
REMARK  120  A    between atoms: _296  and  _297
REMARK  121  A    between atoms: _296  and  _299
REMARK  122  A    between atoms: _299  and  _300
REMARK  123  A    between atoms: _303  and  _305
REMARK  124  A    between atoms: _305  and  _306
REMARK  125  A    between atoms: _305  and  _308
REMARK  126  A    between atoms: _308  and  _309
REMARK  127  A    between atoms: _312  and  _314
REMARK  128  A    between atoms: _314  and  _315
REMARK  129  A    between atoms: _314  and  _317
REMARK  130  A    between atoms: _317  and  _318
REMARK  131  A    between atoms: _321  and  _323
REMARK  132  A    between atoms: _323  and  _324
REMARK  133  A    between atoms: _326  and  _328
REMARK  134  A    between atoms: _328  and  _329
REMARK  135  A    between atoms: _332  and  _334
REMARK  136  A    between atoms: _334  and  _335
REMARK  137  A    between atoms: _334  and  _337
REMARK  138  A    between atoms: _337  and  _338
REMARK  139  A    between atoms: _341  and  _343
REMARK  140  A    between atoms: _343  and  _344
REMARK  141  A    between atoms: _343  and  _346
REMARK  142  A    between atoms: _346  and  _347
REMARK  143  A    between atoms: _350  and  _352
REMARK  144  A    between atoms: _352  and  _353
REMARK  145  A    between atoms: _352  and  _355
REMARK  146  A    between atoms: _355  and  _356
REMARK  147  A    between atoms: _359  and  _361
REMARK  148  A    between atoms: _361  and  _362
REMARK  149  A    between atoms: _361  and  _364
REMARK  150  A    between atoms: _367  and  _369
REMARK  151  A    between atoms: _369  and  _370
REMARK  152  A    between atoms: _369  and  _372
REMARK  153  A    between atoms: _372  and  _373
REMARK  154  A    between atoms: _376  and  _378
REMARK  155  A    between atoms: _378  and  _379
REMARK  156  A    between atoms: _378  and  _381
REMARK  157  A    between atoms: _381  and  _382
REMARK  158  A    between atoms: _382  and  _383
REMARK  159  A    between atoms: _386  and  _388
REMARK  160  A    between atoms: _388  and  _389
REMARK  161  A    between atoms: _388  and  _391
REMARK  162  A    between atoms: _391  and  _392
REMARK  163  A    between atoms: _392  and  _393
REMARK  164  A    between atoms: _393  and  _394
REMARK  165  A    between atoms: _394  and  _395
REMARK  166  A    between atoms: _399  and  _401
REMARK  167  A    between atoms: _401  and  _402
REMARK  168  A    between atoms: _401  and  _404
REMARK  169  A    between atoms: _404  and  _405
REMARK  170  A    between atoms: _405  and  _406
REMARK  171  A    between atoms: _408  and  _410
REMARK  172  A    between atoms: _410  and  _411
REMARK  173  A    between atoms: _410  and  _413
REMARK  174  A    between atoms: _413  and  _414
REMARK  175  A    between atoms: _417  and  _419
REMARK  176  A    between atoms: _419  and  _420
REMARK  177  A    between atoms: _419  and  _422
REMARK  178  A    between atoms: _425  and  _427
REMARK  179  A    between atoms: _427  and  _428
REMARK  180  A    between atoms: _430  and  _432
REMARK  181  A    between atoms: _432  and  _433
REMARK  182  A    between atoms: _432  and  _435
REMARK  183  A    between atoms: _435  and  _436
REMARK  184  A    between atoms: _439  and  _441
REMARK  185  A    between atoms: _441  and  _442
REMARK  186  A    between atoms: _444  and  _446
REMARK  187  A    between atoms: _446  and  _447
REMARK  188  A    between atoms: _449  and  _451
REMARK  189  A    between atoms: _451  and  _452
REMARK  190  A    between atoms: _451  and  _454
REMARK  191  A    between atoms: _457  and  _459
REMARK  192  A    between atoms: _459  and  _460
REMARK  193  A    between atoms: _459  and  _462
REMARK  194  A    between atoms: _465  and  _467
REMARK  195  A    between atoms: _467  and  _468
REMARK  196  A    between atoms: _467  and  _470
REMARK  197  A    between atoms: _470  and  _471
REMARK  198  A    between atoms: _475  and  _476
REMARK  199  A    between atoms: _481  and  _483
REMARK  200  A    between atoms: _483  and  _484
REMARK  201  A    between atoms: _483  and  _486
REMARK  202  A    between atoms: _486  and  _487
REMARK  203  A    between atoms: _491  and  _492
REMARK  204  A    between atoms: _497  and  _499
REMARK  205  A    between atoms: _499  and  _500
REMARK  206  A    between atoms: _503  and  _505
REMARK  207  A    between atoms: _505  and  _506
REMARK  208  A    between atoms: _505  and  _508
REMARK  209  A    between atoms: _508  and  _509
REMARK  210  A    between atoms: _514  and  _516
REMARK  211  A    between atoms: _516  and  _517
REMARK  212  A    between atoms: _516  and  _519
REMARK  213  A    between atoms: _519  and  _520
REMARK  214  A    between atoms: _523  and  _525
REMARK  215  A    between atoms: _525  and  _526
REMARK  216  A    between atoms: _525  and  _528
REMARK  217  A    between atoms: _528  and  _529
REMARK  218  A    between atoms: _532  and  _534
REMARK  219  A    between atoms: _534  and  _535
REMARK  220  A    between atoms: _537  and  _539
REMARK  221  A    between atoms: _539  and  _540
REMARK  222  A    between atoms: _539  and  _542
REMARK  223  A    between atoms: _542  and  _543
REMARK  224  A    between atoms: _543  and  _544
REMARK  225  A    between atoms: _544  and  _545
REMARK  226  A    between atoms: _554  and  _556
REMARK  227  A    between atoms: _556  and  _557
REMARK  228  A    between atoms: _556  and  _559
REMARK  229  A    between atoms: _559  and  _560
REMARK                            x       y       z     vdW  Elec       q    Type
REMARK                         _______ _______ _______ _____ _____    ______ ____
ROOT
ATOM      1  CA  LEU A   1      11.011 -20.345  49.635  0.00  0.00    +0.133 C 
ENDROOT
BRANCH   1   2
ATOM      2  N   LEU A   1      11.702 -21.616  49.869  0.00  0.00    -0.239 NA
ATOM      3  H   LEU A   1      12.076 -22.145  49.055  0.00  0.00    +0.142 HD
ENDBRANCH   1   2
BRANCH   1   4
ATOM      4  C   LEU A   1       9.547 -20.624  49.328  0.00  0.00    +0.224 C 
ATOM      5  O   LEU A   1       9.228 -21.595  48.673  0.00  0.00    -0.287 OA
ENDBRANCH   1   4
BRANCH   1   6
ATOM      6  CB  LEU A   1      11.648 -19.580  48.471  0.00  0.00    +0.025 C 
BRANCH   6   7
ATOM      7  CG  LEU A   1      13.167 -19.475  48.476  0.00  0.00    +0.002 C 
ATOM      8  CD2 LEU A   1      13.659 -18.612  49.631  0.00  0.00    +0.000 C 
ATOM      9  CD1 LEU A   1      13.657 -18.925  47.134  0.00  0.00    +0.000 C 
ENDBRANCH   6   7
ENDBRANCH   1   6
TORSDOF 4
REMARK  Name = ../refined-set-2016/3ekp/3ekp_pocket.pdb
REMARK  229 active torsions:
REMARK  status: ('A' for Active; 'I' for Inactive)
REMARK    1  A    between atoms: _1  and  _3
REMARK    2  A    between atoms: _3  and  _4
REMARK    3  A    between atoms: _3  and  _6
REMARK    4  A    between atoms: _6  and  _7
REMARK    5  A    between atoms: _7  and  _8
REMARK    6  A    between atoms: _8  and  _9
REMARK    7  A    between atoms: _18  and  _20
REMARK    8  A    between atoms: _20  and  _21
REMARK    9  A    between atoms: _20  and  _23
REMARK   10  A    between atoms: _23  and  _24
REMARK   11  A    between atoms: _27  and  _29
REMARK   12  A    between atoms: _29  and  _30
REMARK   13  A    between atoms: _29  and  _32
REMARK   14  A    between atoms: _32  and  _33
REMARK   15  A    between atoms: _36  and  _38
REMARK   16  A    between atoms: _38  and  _39
REMARK   17  A    between atoms: _38  and  _41
REMARK   18  A    between atoms: _41  and  _42
REMARK   19  A    between atoms: _45  and  _47
REMARK   20  A    between atoms: _47  and  _48
REMARK   21  A    between atoms: _47  and  _50
REMARK   22  A    between atoms: _50  and  _51
REMARK   23  A    between atoms: _54  and  _56
REMARK   24  A    between atoms: _56  and  _57
REMARK   25  A    between atoms: _59  and  _61
REMARK   26  A    between atoms: _61  and  _62
REMARK   27  A    between atoms: _65  and  _67
REMARK   28  A    between atoms: _67  and  _68
REMARK   29  A    between atoms: _67  and  _70
REMARK   30  A    between atoms: _70  and  _71
REMARK   31  A    between atoms: _74  and  _76
REMARK   32  A    between atoms: _76  and  _77
REMARK   33  A    between atoms: _76  and  _79
REMARK   34  A    between atoms: _79  and  _80
REMARK   35  A    between atoms: _83  and  _85
REMARK   36  A    between atoms: _85  and  _86
REMARK   37  A    between atoms: _85  and  _88
REMARK   38  A    between atoms: _88  and  _89
REMARK   39  A    between atoms: _92  and  _94
REMARK   40  A    between atoms: _94  and  _95
REMARK   41  A    between atoms: _94  and  _97
REMARK   42  A    between atoms: _100  and  _102
REMARK   43  A    between atoms: _102  and  _103
REMARK   44  A    between atoms: _102  and  _105
REMARK   45  A    between atoms: _105  and  _106
REMARK   46  A    between atoms: _109  and  _111
REMARK   47  A    between atoms: _111  and  _112
REMARK   48  A    between atoms: _111  and  _114
REMARK   49  A    between atoms: _114  and  _115
REMARK   50  A    between atoms: _115  and  _116
REMARK   51  A    between atoms: _118  and  _120
REMARK   52  A    between atoms: _120  and  _121
REMARK   53  A    between atoms: _120  and  _123
REMARK   54  A    between atoms: _123  and  _124
REMARK   55  A    between atoms: _127  and  _129
REMARK   56  A    between atoms: _129  and  _130
REMARK   57  A    between atoms: _129  and  _132
REMARK   58  A    between atoms: _135  and  _137
REMARK   59  A    between atoms: _137  and  _138
REMARK   60  A    between atoms: _140  and  _142
REMARK   61  A    between atoms: _142  and  _143
REMARK   62  A    between atoms: _142  and  _145
REMARK   63  A    between atoms: _145  and  _146
REMARK   64  A    between atoms: _149  and  _151
REMARK   65  A    between atoms: _151  and  _152
REMARK   66  A    between atoms: _154  and  _156
REMARK   67  A    between atoms: _156  and  _157
REMARK   68  A    between atoms: _159  and  _161
REMARK   69  A    between atoms: _161  and  _162
REMARK   70  A    between atoms: _161  and  _164
REMARK   71  A    between atoms: _167  and  _169
REMARK   72  A    between atoms: _169  and  _170
REMARK   73  A    between atoms: _169  and  _172
REMARK   74  A    between atoms: _175  and  _177
REMARK   75  A    between atoms: _177  and  _178
REMARK   76  A    between atoms: _177  and  _180
REMARK   77  A    between atoms: _180  and  _181
REMARK   78  A    between atoms: _184  and  _186
REMARK   79  A    between atoms: _186  and  _187
REMARK   80  A    between atoms: _186  and  _189
REMARK   81  A    between atoms: _189  and  _190
REMARK   82  A    between atoms: _194  and  _195
REMARK   83  A    between atoms: _200  and  _202
REMARK   84  A    between atoms: _202  and  _203
REMARK   85  A    between atoms: _206  and  _208
REMARK   86  A    between atoms: _208  and  _209
REMARK   87  A    between atoms: _208  and  _211
REMARK   88  A    between atoms: _211  and  _212
REMARK   89  A    between atoms: _217  and  _219
REMARK   90  A    between atoms: _219  and  _220
REMARK   91  A    between atoms: _219  and  _222
REMARK   92  A    between atoms: _222  and  _223
REMARK   93  A    between atoms: _226  and  _228
REMARK   94  A    between atoms: _228  and  _229
REMARK   95  A    between atoms: _228  and  _231
REMARK   96  A    between atoms: _231  and  _232
REMARK   97  A    between atoms: _235  and  _237
REMARK   98  A    between atoms: _237  and  _238
REMARK   99  A    between atoms: _240  and  _242
REMARK  100  A    between atoms: _242  and  _243
REMARK  101  A    between atoms: _242  and  _245
REMARK  102  A    between atoms: _245  and  _246
REMARK  103  A    between atoms: _246  and  _247
REMARK  104  A    between atoms: _247  and  _248
REMARK  105  A    between atoms: _257  and  _259
REMARK  106  A    between atoms: _259  and  _260
REMARK  107  A    between atoms: _259  and  _262
REMARK  108  A    between atoms: _262  and  _263
REMARK  109  A    between atoms: _268  and  _270
REMARK  110  A    between atoms: _270  and  _271
REMARK  111  A    between atoms: _270  and  _273
REMARK  112  A    between atoms: _273  and  _274
REMARK  113  A    between atoms: _274  and  _275
REMARK  114  A    between atoms: _275  and  _276
REMARK  115  A    between atoms: _285  and  _287
REMARK  116  A    between atoms: _287  and  _288
REMARK  117  A    between atoms: _287  and  _290
REMARK  118  A    between atoms: _290  and  _291
REMARK  119  A    between atoms: _294  and  _296
REMARK  120  A    between atoms: _296  and  _297
REMARK  121  A    between atoms: _296  and  _299
REMARK  122  A    between atoms: _299  and  _300
REMARK  123  A    between atoms: _303  and  _305
REMARK  124  A    between atoms: _305  and  _306
REMARK  125  A    between atoms: _305  and  _308
REMARK  126  A    between atoms: _308  and  _309
REMARK  127  A    between atoms: _312  and  _314
REMARK  128  A    between atoms: _314  and  _315
REMARK  129  A    between atoms: _314  and  _317
REMARK  130  A    between atoms: _317  and  _318
REMARK  131  A    between atoms: _321  and  _323
REMARK  132  A    between atoms: _323  and  _324
REMARK  133  A    between atoms: _326  and  _328
REMARK  134  A    between atoms: _328  and  _329
REMARK  135  A    between atoms: _332  and  _334
REMARK  136  A    between atoms: _334  and  _335
REMARK  137  A    between atoms: _334  and  _337
REMARK  138  A    between atoms: _337  and  _338
REMARK  139  A    between atoms: _341  and  _343
REMARK  140  A    between atoms: _343  and  _344
REMARK  141  A    between atoms: _343  and  _346
REMARK  142  A    between atoms: _346  and  _347
REMARK  143  A    between atoms: _350  and  _352
REMARK  144  A    between atoms: _352  and  _353
REMARK  145  A    between atoms: _352  and  _355
REMARK  146  A    between atoms: _355  and  _356
REMARK  147  A    between atoms: _359  and  _361
REMARK  148  A    between atoms: _361  and  _362
REMARK  149  A    between atoms: _361  and  _364
REMARK  150  A    between atoms: _367  and  _369
REMARK  151  A    between atoms: _369  and  _370
REMARK  152  A    between atoms: _369  and  _372
REMARK  153  A    between atoms: _372  and  _373
REMARK  154  A    between atoms: _376  and  _378
REMARK  155  A    between atoms: _378  and  _379
REMARK  156  A    between atoms: _378  and  _381
REMARK  157  A    between atoms: _381  and  _382
REMARK  158  A    between atoms: _382  and  _383
REMARK  159  A    between atoms: _386  and  _388
REMARK  160  A    between atoms: _388  and  _389
REMARK  161  A    between atoms: _388  and  _391
REMARK  162  A    between atoms: _391  and  _392
REMARK  163  A    between atoms: _392  and  _393
REMARK  164  A    between atoms: _393  and  _394
REMARK  165  A    between atoms: _394  and  _395
REMARK  166  A    between atoms: _399  and  _401
REMARK  167  A    between atoms: _401  and  _402
REMARK  168  A    between atoms: _401  and  _404
REMARK  169  A    between atoms: _404  and  _405
REMARK  170  A    between atoms: _405  and  _406
REMARK  171  A    between atoms: _408  and  _410
REMARK  172  A    between atoms: _410  and  _411
REMARK  173  A    between atoms: _410  and  _413
REMARK  174  A    between atoms: _413  and  _414
REMARK  175  A    between atoms: _417  and  _419
REMARK  176  A    between atoms: _419  and  _420
REMARK  177  A    between atoms: _419  and  _422
REMARK  178  A    between atoms: _425  and  _427
REMARK  179  A    between atoms: _427  and  _428
REMARK  180  A    between atoms: _430  and  _432
REMARK  181  A    between atoms: _432  and  _433
REMARK  182  A    between atoms: _432  and  _435
REMARK  183  A    between atoms: _435  and  _436
REMARK  184  A    between atoms: _439  and  _441
REMARK  185  A    between atoms: _441  and  _442
REMARK  186  A    between atoms: _444  and  _446
REMARK  187  A    between atoms: _446  and  _447
REMARK  188  A    between atoms: _449  and  _451
REMARK  189  A    between atoms: _451  and  _452
REMARK  190  A    between atoms: _451  and  _454
REMARK  191  A    between atoms: _457  and  _459
REMARK  192  A    between atoms: _459  and  _460
REMARK  193  A    between atoms: _459  and  _462
REMARK  194  A    between atoms: _465  and  _467
REMARK  195  A    between atoms: _467  and  _468
REMARK  196  A    between atoms: _467  and  _470
REMARK  197  A    between atoms: _470  and  _471
REMARK  198  A    between atoms: _475  and  _476
REMARK  199  A    between atoms: _481  and  _483
REMARK  200  A    between atoms: _483  and  _484
REMARK  201  A    between atoms: _483  and  _486
REMARK  202  A    between atoms: _486  and  _487
REMARK  203  A    between atoms: _491  and  _492
REMARK  204  A    between atoms: _497  and  _499
REMARK  205  A    between atoms: _499  and  _500
REMARK  206  A    between atoms: _503  and  _505
REMARK  207  A    between atoms: _505  and  _506
REMARK  208  A    between atoms: _505  and  _508
REMARK  209  A    between atoms: _508  and  _509
REMARK  210  A    between atoms: _514  and  _516
REMARK  211  A    between atoms: _516  and  _517
REMARK  212  A    between atoms: _516  and  _519
REMARK  213  A    between atoms: _519  and  _520
REMARK  214  A    between atoms: _523  and  _525
REMARK  215  A    between atoms: _525  and  _526
REMARK  216  A    between atoms: _525  and  _528
REMARK  217  A    between atoms: _528  and  _529
REMARK  218  A    between atoms: _532  and  _534
REMARK  219  A    between atoms: _534  and  _535
REMARK  220  A    between atoms: _537  and  _539
REMARK  221  A    between atoms: _539  and  _540
REMARK  222  A    between atoms: _539  and  _542
REMARK  223  A    between atoms: _542  and  _543
REMARK  224  A    between atoms: _543  and  _544
REMARK  225  A    between atoms: _544  and  _545
REMARK  226  A    between atoms: _554  and  _556
REMARK  227  A    between atoms: _556  and  _557
REMARK  228  A    between atoms: _556  and  _559
REMARK  229  A    between atoms: _559  and  _560
REMARK                            x       y       z     vdW  Elec       q    Type
REMARK                         _______ _______ _______ _____ _____    ______ ____
ROOT
ATOM      1  CA  ILE A   6      10.010 -26.475  42.232  0.00  0.00    +0.149 C 
ENDROOT
BRANCH   1   2
ATOM      2  C   ILE A   6      11.131 -26.859  43.195  0.00  0.00    +0.241 C 
ATOM      3  O   ILE A   6      11.368 -26.175  44.190  0.00  0.00    -0.273 OA
ATOM      4  N   ILE A   7      11.848 -27.926  42.870  0.00  0.00    -0.297 N 
ATOM      5  H   ILE A   7      11.594 -28.467  42.019  0.00  0.00    +0.150 HD
BRANCH   4   6
ATOM      6  CA  ILE A   7      12.986 -28.361  43.678  0.00  0.00    +0.149 C 
BRANCH   6   7
ATOM      7  C   ILE A   7      14.248 -27.927  42.928  0.00  0.00    +0.241 C 
ATOM      8  N   GLY A   8      14.973 -26.980  43.525  0.00  0.00    -0.295 N 
ATOM      9  H   GLY A   8      14.725 -26.717  44.500  0.00  0.00    +0.150 HD
ATOM     10  O   ILE A   7      14.480 -28.375  41.801  0.00  0.00    -0.273 OA
BRANCH   8  11
ATOM     11  CA  GLY A   8      16.091 -26.292  42.894  0.00  0.00    +0.176 C 
BRANCH  11  12
ATOM     12  C   GLY A   8      17.416 -26.847  43.375  0.00  0.00    +0.243 C 
ATOM     13  O   GLY A   8      17.455 -27.789  44.187  0.00  0.00    -0.273 OA
ATOM     14  N   ARG A   9      18.503 -26.233  42.905  0.00  0.00    -0.297 N 
ATOM     15  H   ARG A   9      18.413 -25.311  42.433  0.00  0.00    +0.150 HD
BRANCH  14  16
ATOM     16  CA  ARG A   9      19.810 -26.846  43.049  0.00  0.00    +0.149 C 
BRANCH  16  17
ATOM     17  C   ARG A   9      20.232 -26.989  44.509  0.00  0.00    +0.241 C 
ATOM     18  N   ASN A  10      19.725 -26.142  45.404  0.00  0.00    -0.298 N 
ATOM     19  H   ASN A  10      19.061 -25.401  45.103  0.00  0.00    +0.150 HD
ATOM     20  O   ARG A   9      20.971 -27.905  44.832  0.00  0.00    -0.273 OA
BRANCH  18  21
ATOM     21  CA  ASN A  10      20.104 -26.258  46.803  0.00  0.00    +0.146 C 
BRANCH  21  22
ATOM     22  C   ASN A  10      19.805 -27.651  47.331  0.00  0.00    +0.227 C 
ATOM     23  O   ASN A  10      20.609 -28.220  48.056  0.00  0.00    -0.286 OA
ENDBRANCH  21  22
BRANCH  21  24
ATOM     24  CB  ASN A  10      19.441 -25.185  47.687  0.00  0.00    +0.112 C 
BRANCH  24  25
ATOM     25  CG  ASN A  10      17.930 -25.384  47.852  0.00  0.00    +0.222 C 
ATOM     26  ND2 ASN A  10      17.473 -25.338  49.087  0.00  0.00    -0.329 N 
ATOM     27 HD21 ASN A  10      18.137 -25.275  49.885  0.00  0.00    +0.145 HD
ATOM     28 HD22 ASN A  10      16.448 -25.365  49.264  0.00  0.00    +0.145 HD
ATOM     29  OD1 ASN A  10      17.180 -25.459  46.874  0.00  0.00    -0.275 OA
ENDBRANCH  24  25
ENDBRANCH  21  24
ENDBRANCH  18  21
ENDBRANCH  16  17
BRANCH  16  30
ATOM     30  CB  ARG A   9      20.875 -26.093  42.254  0.00  0.00    +0.033 C 
BRANCH  30  31
ATOM     31  CG  ARG A   9      20.695 -26.214  40.738  0.00  0.00    +0.045 C 
BRANCH  31  32
ATOM     32  CD  ARG A   9      21.895 -25.643  39.989  0.00  0.00    +0.174 C 
BRANCH  32  33
ATOM     33  NE  ARG A   9      22.028 -24.210  40.230  0.00  0.00    -0.265 N 
ATOM     34  CZ  ARG A   9      22.860 -23.686  41.122  0.00  0.00    +0.342 C 
ATOM     35  NH2 ARG A   9      23.679 -24.466  41.812  0.00  0.00    -0.292 N 
ATOM     36 HH21 ARG A   9      24.329 -24.050  42.510  0.00  0.00    +0.255 HD
ATOM     37 HH22 ARG A   9      23.672 -25.494  41.656  0.00  0.00    +0.255 HD
ATOM     38  NH1 ARG A   9      22.908 -22.377  41.281  0.00  0.00    -0.292 N 
ATOM     39 HH11 ARG A   9      23.558 -21.961  41.978  0.00  0.00    +0.255 HD
ATOM     40 HH12 ARG A   9      22.296 -21.761  40.709  0.00  0.00    +0.255 HD
ATOM     41  HE  ARG A   9      21.437 -23.562  39.671  0.00  0.00    +0.259 HD
ENDBRANCH  32  33
ENDBRANCH  31  32
ENDBRANCH  30  31
ENDBRANCH  16  30
ENDBRANCH  14  16
ENDBRANCH  11  12
ENDBRANCH   8  11
ENDBRANCH   6   7
BRANCH   6  42
ATOM     42  CB  ILE A   7      13.010 -29.886  43.885  0.00  0.00    +0.027 C 
ATOM     43  CG2 ILE A   7      14.169 -30.270  44.798  0.00  0.00    +0.002 C 
BRANCH  42  44
ATOM     44  CG1 ILE A   7      11.683 -30.404  44.477  0.00  0.00    +0.002 C 
ATOM     45  CD1 ILE A   7      11.250 -29.739  45.755  0.00  0.00    +0.000 C 
ENDBRANCH  42  44
ENDBRANCH   6  42
ENDBRANCH   4   6
ENDBRANCH   1   2
BRANCH   1  47
ATOM     46  C   ASN A   5       7.640 -26.935  42.456  0.00  0.00    +0.241 C 
ATOM     47  N   ILE A   6       8.737 -26.359  42.927  0.00  0.00    -0.297 N 
ATOM     48  H   ILE A   6       8.687 -25.813  43.811  0.00  0.00    +0.150 HD
ATOM     49  O   ASN A   5       7.662 -27.708  41.517  0.00  0.00    -0.273 OA
BRANCH  46  50
ATOM     50  CA  ASN A   5       6.329 -26.577  43.143  0.00  0.00    +0.158 C 
BRANCH  50  52
ATOM     51  C   ALA A   4       5.529 -25.175  41.343  0.00  0.00    +0.241 C 
ATOM     52  N   ASN A   5       5.326 -26.201  42.158  0.00  0.00    -0.297 N 
ATOM     53  H   ASN A   5       4.441 -26.743  42.093  0.00  0.00    +0.150 HD
ATOM     54  O   ALA A   4       6.412 -24.355  41.535  0.00  0.00    -0.273 OA
BRANCH  51  55
ATOM     55  CA  ALA A   4       4.602 -25.042  40.154  0.00  0.00    +0.149 C 
ATOM     56  CB  ALA A   4       5.265 -25.554  38.886  0.00  0.00    +0.031 C 
BRANCH  55  58
ATOM     57  C   PRO A   3       3.115 -23.320  39.344  0.00  0.00    +0.241 C 
ATOM     58  N   ALA A   4       4.232 -23.650  39.985  0.00  0.00    -0.297 N 
ATOM     59  H   ALA A   4       4.846 -22.903  40.369  0.00  0.00    +0.150 HD
ATOM     60  O   PRO A   3       2.350 -24.165  38.861  0.00  0.00    -0.273 OA
BRANCH  57  64
ATOM     61  C   THR A   2       3.820 -20.706  41.078  0.00  0.00    +0.246 C 
ATOM     62  O   THR A   2       2.972 -21.150  41.829  0.00  0.00    -0.273 OA
ATOM     63  N   PRO A   3       3.814 -20.945  39.761  0.00  0.00    -0.272 N 
ATOM     64  CA  PRO A   3       2.806 -21.828  39.189  0.00  0.00    +0.152 C 
ATOM     65  CB  PRO A   3       2.791 -21.441  37.705  0.00  0.00    +0.031 C 
ATOM     66  CG  PRO A   3       3.981 -20.538  37.474  0.00  0.00    +0.024 C 
ATOM     67  CD  PRO A   3       4.751 -20.431  38.747  0.00  0.00    +0.094 C 
BRANCH  61  68
ATOM     68  CA  THR A   2       4.956 -19.868  41.646  0.00  0.00    +0.176 C 
BRANCH  68  70
ATOM     69  C   PRO A   1       4.227 -17.893  42.819  0.00  0.00    +0.239 C 
ATOM     70  N   THR A   2       4.399 -19.198  42.799  0.00  0.00    -0.295 N 
ATOM     71  H   THR A   2       4.128 -19.759  43.632  0.00  0.00    +0.150 HD
ATOM     72  O   PRO A   1       4.755 -17.146  42.002  0.00  0.00    -0.274 OA
BRANCH  69  77
ATOM     73  N   PRO A   1       4.165 -17.127  45.164  0.00  0.00    -0.210 NA
ATOM     74  CD  PRO A   1       4.496 -15.702  45.338  0.00  0.00    +0.089 C 
ATOM     75  CG  PRO A   1       3.816 -15.032  44.177  0.00  0.00    +0.021 C 
ATOM     76  CB  PRO A   1       2.798 -15.973  43.647  0.00  0.00    +0.028 C 
ATOM     77  CA  PRO A   1       3.373 -17.360  43.965  0.00  0.00    +0.149 C 
ENDBRANCH  69  77
ENDBRANCH  68  70
BRANCH  68  78
ATOM     78  CB  THR A   2       6.139 -20.774  42.056  0.00  0.00    +0.137 C 
ATOM     79  CG2 THR A   2       5.769 -21.626  43.273  0.00  0.00    +0.034 C 
BRANCH  78  80
ATOM     80  OG1 THR A   2       6.517 -21.620  40.960  0.00  0.00    -0.382 OA
ATOM     81  HG1 THR A   2       7.275 -22.195  41.235  0.00  0.00    +0.210 HD
ENDBRANCH  78  80
ENDBRANCH  68  78
ENDBRANCH  61  68
ENDBRANCH  57  64
ENDBRANCH  55  58
ENDBRANCH  51  55
ENDBRANCH  50  52
BRANCH  50  82
ATOM     82  CB  ASN A   5       5.849 -27.738  44.003  0.00  0.00    +0.114 C 
BRANCH  82  83
ATOM     83  CG  ASN A   5       4.647 -27.381  44.862  0.00  0.00    +0.222 C 
ATOM     84  OD1 ASN A   5       4.440 -26.219  45.232  0.00  0.00    -0.275 OA
ATOM     85  ND2 ASN A   5       3.831 -28.388  45.165  0.00  0.00    -0.329 N 
ATOM     86 HD21 ASN A   5       2.979 -28.213  45.735  0.00  0.00    +0.145 HD
ATOM     87 HD22 ASN A   5       4.046 -29.350  44.832  0.00  0.00    +0.145 HD
ENDBRANCH  82  83
ENDBRANCH  50  82
ENDBRANCH  46  50
ENDBRANCH   1  47
BRANCH   1  88
ATOM     88  CB  ILE A   6      10.365 -25.139  41.570  0.00  0.00    +0.027 C 
ATOM     89  CG2 ILE A   6      11.841 -25.070  41.235  0.00  0.00    +0.002 C 
BRANCH  88  90
ATOM     90  CG1 ILE A   6       9.536 -24.953  40.304  0.00  0.00    +0.002 C 
ATOM     91  CD1 ILE A   6       9.357 -23.459  39.959  0.00  0.00    +0.000 C 
ENDBRANCH  88  90
ENDBRANCH   1  88
TORSDOF 32
REMARK  Name = ../refined-set-2016/3ekp/3ekp_pocket.pdb
REMARK  229 active torsions:
REMARK  status: ('A' for Active; 'I' for Inactive)
REMARK    1  A    between atoms: _1  and  _3
REMARK    2  A    between atoms: _3  and  _4
REMARK    3  A    between atoms: _3  and  _6
REMARK    4  A    between atoms: _6  and  _7
REMARK    5  A    between atoms: _7  and  _8
REMARK    6  A    between atoms: _8  and  _9
REMARK    7  A    between atoms: _18  and  _20
REMARK    8  A    between atoms: _20  and  _21
REMARK    9  A    between atoms: _20  and  _23
REMARK   10  A    between atoms: _23  and  _24
REMARK   11  A    between atoms: _27  and  _29
REMARK   12  A    between atoms: _29  and  _30
REMARK   13  A    between atoms: _29  and  _32
REMARK   14  A    between atoms: _32  and  _33
REMARK   15  A    between atoms: _36  and  _38
REMARK   16  A    between atoms: _38  and  _39
REMARK   17  A    between atoms: _38  and  _41
REMARK   18  A    between atoms: _41  and  _42
REMARK   19  A    between atoms: _45  and  _47
REMARK   20  A    between atoms: _47  and  _48
REMARK   21  A    between atoms: _47  and  _50
REMARK   22  A    between atoms: _50  and  _51
REMARK   23  A    between atoms: _54  and  _56
REMARK   24  A    between atoms: _56  and  _57
REMARK   25  A    between atoms: _59  and  _61
REMARK   26  A    between atoms: _61  and  _62
REMARK   27  A    between atoms: _65  and  _67
REMARK   28  A    between atoms: _67  and  _68
REMARK   29  A    between atoms: _67  and  _70
REMARK   30  A    between atoms: _70  and  _71
REMARK   31  A    between atoms: _74  and  _76
REMARK   32  A    between atoms: _76  and  _77
REMARK   33  A    between atoms: _76  and  _79
REMARK   34  A    between atoms: _79  and  _80
REMARK   35  A    between atoms: _83  and  _85
REMARK   36  A    between atoms: _85  and  _86
REMARK   37  A    between atoms: _85  and  _88
REMARK   38  A    between atoms: _88  and  _89
REMARK   39  A    between atoms: _92  and  _94
REMARK   40  A    between atoms: _94  and  _95
REMARK   41  A    between atoms: _94  and  _97
REMARK   42  A    between atoms: _100  and  _102
REMARK   43  A    between atoms: _102  and  _103
REMARK   44  A    between atoms: _102  and  _105
REMARK   45  A    between atoms: _105  and  _106
REMARK   46  A    between atoms: _109  and  _111
REMARK   47  A    between atoms: _111  and  _112
REMARK   48  A    between atoms: _111  and  _114
REMARK   49  A    between atoms: _114  and  _115
REMARK   50  A    between atoms: _115  and  _116
REMARK   51  A    between atoms: _118  and  _120
REMARK   52  A    between atoms: _120  and  _121
REMARK   53  A    between atoms: _120  and  _123
REMARK   54  A    between atoms: _123  and  _124
REMARK   55  A    between atoms: _127  and  _129
REMARK   56  A    between atoms: _129  and  _130
REMARK   57  A    between atoms: _129  and  _132
REMARK   58  A    between atoms: _135  and  _137
REMARK   59  A    between atoms: _137  and  _138
REMARK   60  A    between atoms: _140  and  _142
REMARK   61  A    between atoms: _142  and  _143
REMARK   62  A    between atoms: _142  and  _145
REMARK   63  A    between atoms: _145  and  _146
REMARK   64  A    between atoms: _149  and  _151
REMARK   65  A    between atoms: _151  and  _152
REMARK   66  A    between atoms: _154  and  _156
REMARK   67  A    between atoms: _156  and  _157
REMARK   68  A    between atoms: _159  and  _161
REMARK   69  A    between atoms: _161  and  _162
REMARK   70  A    between atoms: _161  and  _164
REMARK   71  A    between atoms: _167  and  _169
REMARK   72  A    between atoms: _169  and  _170
REMARK   73  A    between atoms: _169  and  _172
REMARK   74  A    between atoms: _175  and  _177
REMARK   75  A    between atoms: _177  and  _178
REMARK   76  A    between atoms: _177  and  _180
REMARK   77  A    between atoms: _180  and  _181
REMARK   78  A    between atoms: _184  and  _186
REMARK   79  A    between atoms: _186  and  _187
REMARK   80  A    between atoms: _186  and  _189
REMARK   81  A    between atoms: _189  and  _190
REMARK   82  A    between atoms: _194  and  _195
REMARK   83  A    between atoms: _200  and  _202
REMARK   84  A    between atoms: _202  and  _203
REMARK   85  A    between atoms: _206  and  _208
REMARK   86  A    between atoms: _208  and  _209
REMARK   87  A    between atoms: _208  and  _211
REMARK   88  A    between atoms: _211  and  _212
REMARK   89  A    between atoms: _217  and  _219
REMARK   90  A    between atoms: _219  and  _220
REMARK   91  A    between atoms: _219  and  _222
REMARK   92  A    between atoms: _222  and  _223
REMARK   93  A    between atoms: _226  and  _228
REMARK   94  A    between atoms: _228  and  _229
REMARK   95  A    between atoms: _228  and  _231
REMARK   96  A    between atoms: _231  and  _232
REMARK   97  A    between atoms: _235  and  _237
REMARK   98  A    between atoms: _237  and  _238
REMARK   99  A    between atoms: _240  and  _242
REMARK  100  A    between atoms: _242  and  _243
REMARK  101  A    between atoms: _242  and  _245
REMARK  102  A    between atoms: _245  and  _246
REMARK  103  A    between atoms: _246  and  _247
REMARK  104  A    between atoms: _247  and  _248
REMARK  105  A    between atoms: _257  and  _259
REMARK  106  A    between atoms: _259  and  _260
REMARK  107  A    between atoms: _259  and  _262
REMARK  108  A    between atoms: _262  and  _263
REMARK  109  A    between atoms: _268  and  _270
REMARK  110  A    between atoms: _270  and  _271
REMARK  111  A    between atoms: _270  and  _273
REMARK  112  A    between atoms: _273  and  _274
REMARK  113  A    between atoms: _274  and  _275
REMARK  114  A    between atoms: _275  and  _276
REMARK  115  A    between atoms: _285  and  _287
REMARK  116  A    between atoms: _287  and  _288
REMARK  117  A    between atoms: _287  and  _290
REMARK  118  A    between atoms: _290  and  _291
REMARK  119  A    between atoms: _294  and  _296
REMARK  120  A    between atoms: _296  and  _297
REMARK  121  A    between atoms: _296  and  _299
REMARK  122  A    between atoms: _299  and  _300
REMARK  123  A    between atoms: _303  and  _305
REMARK  124  A    between atoms: _305  and  _306
REMARK  125  A    between atoms: _305  and  _308
REMARK  126  A    between atoms: _308  and  _309
REMARK  127  A    between atoms: _312  and  _314
REMARK  128  A    between atoms: _314  and  _315
REMARK  129  A    between atoms: _314  and  _317
REMARK  130  A    between atoms: _317  and  _318
REMARK  131  A    between atoms: _321  and  _323
REMARK  132  A    between atoms: _323  and  _324
REMARK  133  A    between atoms: _326  and  _328
REMARK  134  A    between atoms: _328  and  _329
REMARK  135  A    between atoms: _332  and  _334
REMARK  136  A    between atoms: _334  and  _335
REMARK  137  A    between atoms: _334  and  _337
REMARK  138  A    between atoms: _337  and  _338
REMARK  139  A    between atoms: _341  and  _343
REMARK  140  A    between atoms: _343  and  _344
REMARK  141  A    between atoms: _343  and  _346
REMARK  142  A    between atoms: _346  and  _347
REMARK  143  A    between atoms: _350  and  _352
REMARK  144  A    between atoms: _352  and  _353
REMARK  145  A    between atoms: _352  and  _355
REMARK  146  A    between atoms: _355  and  _356
REMARK  147  A    between atoms: _359  and  _361
REMARK  148  A    between atoms: _361  and  _362
REMARK  149  A    between atoms: _361  and  _364
REMARK  150  A    between atoms: _367  and  _369
REMARK  151  A    between atoms: _369  and  _370
REMARK  152  A    between atoms: _369  and  _372
REMARK  153  A    between atoms: _372  and  _373
REMARK  154  A    between atoms: _376  and  _378
REMARK  155  A    between atoms: _378  and  _379
REMARK  156  A    between atoms: _378  and  _381
REMARK  157  A    between atoms: _381  and  _382
REMARK  158  A    between atoms: _382  and  _383
REMARK  159  A    between atoms: _386  and  _388
REMARK  160  A    between atoms: _388  and  _389
REMARK  161  A    between atoms: _388  and  _391
REMARK  162  A    between atoms: _391  and  _392
REMARK  163  A    between atoms: _392  and  _393
REMARK  164  A    between atoms: _393  and  _394
REMARK  165  A    between atoms: _394  and  _395
REMARK  166  A    between atoms: _399  and  _401
REMARK  167  A    between atoms: _401  and  _402
REMARK  168  A    between atoms: _401  and  _404
REMARK  169  A    between atoms: _404  and  _405
REMARK  170  A    between atoms: _405  and  _406
REMARK  171  A    between atoms: _408  and  _410
REMARK  172  A    between atoms: _410  and  _411
REMARK  173  A    between atoms: _410  and  _413
REMARK  174  A    between atoms: _413  and  _414
REMARK  175  A    between atoms: _417  and  _419
REMARK  176  A    between atoms: _419  and  _420
REMARK  177  A    between atoms: _419  and  _422
REMARK  178  A    between atoms: _425  and  _427
REMARK  179  A    between atoms: _427  and  _428
REMARK  180  A    between atoms: _430  and  _432
REMARK  181  A    between atoms: _432  and  _433
REMARK  182  A    between atoms: _432  and  _435
REMARK  183  A    between atoms: _435  and  _436
REMARK  184  A    between atoms: _439  and  _441
REMARK  185  A    between atoms: _441  and  _442
REMARK  186  A    between atoms: _444  and  _446
REMARK  187  A    between atoms: _446  and  _447
REMARK  188  A    between atoms: _449  and  _451
REMARK  189  A    between atoms: _451  and  _452
REMARK  190  A    between atoms: _451  and  _454
REMARK  191  A    between atoms: _457  and  _459
REMARK  192  A    between atoms: _459  and  _460
REMARK  193  A    between atoms: _459  and  _462
REMARK  194  A    between atoms: _465  and  _467
REMARK  195  A    between atoms: _467  and  _468
REMARK  196  A    between atoms: _467  and  _470
REMARK  197  A    between atoms: _470  and  _471
REMARK  198  A    between atoms: _475  and  _476
REMARK  199  A    between atoms: _481  and  _483
REMARK  200  A    between atoms: _483  and  _484
REMARK  201  A    between atoms: _483  and  _486
REMARK  202  A    between atoms: _486  and  _487
REMARK  203  A    between atoms: _491  and  _492
REMARK  204  A    between atoms: _497  and  _499
REMARK  205  A    between atoms: _499  and  _500
REMARK  206  A    between atoms: _503  and  _505
REMARK  207  A    between atoms: _505  and  _506
REMARK  208  A    between atoms: _505  and  _508
REMARK  209  A    between atoms: _508  and  _509
REMARK  210  A    between atoms: _514  and  _516
REMARK  211  A    between atoms: _516  and  _517
REMARK  212  A    between atoms: _516  and  _519
REMARK  213  A    between atoms: _519  and  _520
REMARK  214  A    between atoms: _523  and  _525
REMARK  215  A    between atoms: _525  and  _526
REMARK  216  A    between atoms: _525  and  _528
REMARK  217  A    between atoms: _528  and  _529
REMARK  218  A    between atoms: _532  and  _534
REMARK  219  A    between atoms: _534  and  _535
REMARK  220  A    between atoms: _537  and  _539
REMARK  221  A    between atoms: _539  and  _540
REMARK  222  A    between atoms: _539  and  _542
REMARK  223  A    between atoms: _542  and  _543
REMARK  224  A    between atoms: _543  and  _544
REMARK  225  A    between atoms: _544  and  _545
REMARK  226  A    between atoms: _554  and  _556
REMARK  227  A    between atoms: _556  and  _557
REMARK  228  A    between atoms: _556  and  _559
REMARK  229  A    between atoms: _559  and  _560
REMARK                            x       y       z     vdW  Elec       q    Type
REMARK                         _______ _______ _______ _____ _____    ______ ____
ROOT
ATOM      1  O   HOH     1       7.955 -27.682  33.106  0.00  0.00    +0.000 OA
ENDROOT
TORSDOF 0
REMARK  Name = ../refined-set-2016/3ekp/3ekp_pocket.pdb
REMARK  229 active torsions:
REMARK  status: ('A' for Active; 'I' for Inactive)
REMARK    1  A    between atoms: _1  and  _3
REMARK    2  A    between atoms: _3  and  _4
REMARK    3  A    between atoms: _3  and  _6
REMARK    4  A    between atoms: _6  and  _7
REMARK    5  A    between atoms: _7  and  _8
REMARK    6  A    between atoms: _8  and  _9
REMARK    7  A    between atoms: _18  and  _20
REMARK    8  A    between atoms: _20  and  _21
REMARK    9  A    between atoms: _20  and  _23
REMARK   10  A    between atoms: _23  and  _24
REMARK   11  A    between atoms: _27  and  _29
REMARK   12  A    between atoms: _29  and  _30
REMARK   13  A    between atoms: _29  and  _32
REMARK   14  A    between atoms: _32  and  _33
REMARK   15  A    between atoms: _36  and  _38
REMARK   16  A    between atoms: _38  and  _39
REMARK   17  A    between atoms: _38  and  _41
REMARK   18  A    between atoms: _41  and  _42
REMARK   19  A    between atoms: _45  and  _47
REMARK   20  A    between atoms: _47  and  _48
REMARK   21  A    between atoms: _47  and  _50
REMARK   22  A    between atoms: _50  and  _51
REMARK   23  A    between atoms: _54  and  _56
REMARK   24  A    between atoms: _56  and  _57
REMARK   25  A    between atoms: _59  and  _61
REMARK   26  A    between atoms: _61  and  _62
REMARK   27  A    between atoms: _65  and  _67
REMARK   28  A    between atoms: _67  and  _68
REMARK   29  A    between atoms: _67  and  _70
REMARK   30  A    between atoms: _70  and  _71
REMARK   31  A    between atoms: _74  and  _76
REMARK   32  A    between atoms: _76  and  _77
REMARK   33  A    between atoms: _76  and  _79
REMARK   34  A    between atoms: _79  and  _80
REMARK   35  A    between atoms: _83  and  _85
REMARK   36  A    between atoms: _85  and  _86
REMARK   37  A    between atoms: _85  and  _88
REMARK   38  A    between atoms: _88  and  _89
REMARK   39  A    between atoms: _92  and  _94
REMARK   40  A    between atoms: _94  and  _95
REMARK   41  A    between atoms: _94  and  _97
REMARK   42  A    between atoms: _100  and  _102
REMARK   43  A    between atoms: _102  and  _103
REMARK   44  A    between atoms: _102  and  _105
REMARK   45  A    between atoms: _105  and  _106
REMARK   46  A    between atoms: _109  and  _111
REMARK   47  A    between atoms: _111  and  _112
REMARK   48  A    between atoms: _111  and  _114
REMARK   49  A    between atoms: _114  and  _115
REMARK   50  A    between atoms: _115  and  _116
REMARK   51  A    between atoms: _118  and  _120
REMARK   52  A    between atoms: _120  and  _121
REMARK   53  A    between atoms: _120  and  _123
REMARK   54  A    between atoms: _123  and  _124
REMARK   55  A    between atoms: _127  and  _129
REMARK   56  A    between atoms: _129  and  _130
REMARK   57  A    between atoms: _129  and  _132
REMARK   58  A    between atoms: _135  and  _137
REMARK   59  A    between atoms: _137  and  _138
REMARK   60  A    between atoms: _140  and  _142
REMARK   61  A    between atoms: _142  and  _143
REMARK   62  A    between atoms: _142  and  _145
REMARK   63  A    between atoms: _145  and  _146
REMARK   64  A    between atoms: _149  and  _151
REMARK   65  A    between atoms: _151  and  _152
REMARK   66  A    between atoms: _154  and  _156
REMARK   67  A    between atoms: _156  and  _157
REMARK   68  A    between atoms: _159  and  _161
REMARK   69  A    between atoms: _161  and  _162
REMARK   70  A    between atoms: _161  and  _164
REMARK   71  A    between atoms: _167  and  _169
REMARK   72  A    between atoms: _169  and  _170
REMARK   73  A    between atoms: _169  and  _172
REMARK   74  A    between atoms: _175  and  _177
REMARK   75  A    between atoms: _177  and  _178
REMARK   76  A    between atoms: _177  and  _180
REMARK   77  A    between atoms: _180  and  _181
REMARK   78  A    between atoms: _184  and  _186
REMARK   79  A    between atoms: _186  and  _187
REMARK   80  A    between atoms: _186  and  _189
REMARK   81  A    between atoms: _189  and  _190
REMARK   82  A    between atoms: _194  and  _195
REMARK   83  A    between atoms: _200  and  _202
REMARK   84  A    between atoms: _202  and  _203
REMARK   85  A    between atoms: _206  and  _208
REMARK   86  A    between atoms: _208  and  _209
REMARK   87  A    between atoms: _208  and  _211
REMARK   88  A    between atoms: _211  and  _212
REMARK   89  A    between atoms: _217  and  _219
REMARK   90  A    between atoms: _219  and  _220
REMARK   91  A    between atoms: _219  and  _222
REMARK   92  A    between atoms: _222  and  _223
REMARK   93  A    between atoms: _226  and  _228
REMARK   94  A    between atoms: _228  and  _229
REMARK   95  A    between atoms: _228  and  _231
REMARK   96  A    between atoms: _231  and  _232
REMARK   97  A    between atoms: _235  and  _237
REMARK   98  A    between atoms: _237  and  _238
REMARK   99  A    between atoms: _240  and  _242
REMARK  100  A    between atoms: _242  and  _243
REMARK  101  A    between atoms: _242  and  _245
REMARK  102  A    between atoms: _245  and  _246
REMARK  103  A    between atoms: _246  and  _247
REMARK  104  A    between atoms: _247  and  _248
REMARK  105  A    between atoms: _257  and  _259
REMARK  106  A    between atoms: _259  and  _260
REMARK  107  A    between atoms: _259  and  _262
REMARK  108  A    between atoms: _262  and  _263
REMARK  109  A    between atoms: _268  and  _270
REMARK  110  A    between atoms: _270  and  _271
REMARK  111  A    between atoms: _270  and  _273
REMARK  112  A    between atoms: _273  and  _274
REMARK  113  A    between atoms: _274  and  _275
REMARK  114  A    between atoms: _275  and  _276
REMARK  115  A    between atoms: _285  and  _287
REMARK  116  A    between atoms: _287  and  _288
REMARK  117  A    between atoms: _287  and  _290
REMARK  118  A    between atoms: _290  and  _291
REMARK  119  A    between atoms: _294  and  _296
REMARK  120  A    between atoms: _296  and  _297
REMARK  121  A    between atoms: _296  and  _299
REMARK  122  A    between atoms: _299  and  _300
REMARK  123  A    between atoms: _303  and  _305
REMARK  124  A    between atoms: _305  and  _306
REMARK  125  A    between atoms: _305  and  _308
REMARK  126  A    between atoms: _308  and  _309
REMARK  127  A    between atoms: _312  and  _314
REMARK  128  A    between atoms: _314  and  _315
REMARK  129  A    between atoms: _314  and  _317
REMARK  130  A    between atoms: _317  and  _318
REMARK  131  A    between atoms: _321  and  _323
REMARK  132  A    between atoms: _323  and  _324
REMARK  133  A    between atoms: _326  and  _328
REMARK  134  A    between atoms: _328  and  _329
REMARK  135  A    between atoms: _332  and  _334
REMARK  136  A    between atoms: _334  and  _335
REMARK  137  A    between atoms: _334  and  _337
REMARK  138  A    between atoms: _337  and  _338
REMARK  139  A    between atoms: _341  and  _343
REMARK  140  A    between atoms: _343  and  _344
REMARK  141  A    between atoms: _343  and  _346
REMARK  142  A    between atoms: _346  and  _347
REMARK  143  A    between atoms: _350  and  _352
REMARK  144  A    between atoms: _352  and  _353
REMARK  145  A    between atoms: _352  and  _355
REMARK  146  A    between atoms: _355  and  _356
REMARK  147  A    between atoms: _359  and  _361
REMARK  148  A    between atoms: _361  and  _362
REMARK  149  A    between atoms: _361  and  _364
REMARK  150  A    between atoms: _367  and  _369
REMARK  151  A    between atoms: _369  and  _370
REMARK  152  A    between atoms: _369  and  _372
REMARK  153  A    between atoms: _372  and  _373
REMARK  154  A    between atoms: _376  and  _378
REMARK  155  A    between atoms: _378  and  _379
REMARK  156  A    between atoms: _378  and  _381
REMARK  157  A    between atoms: _381  and  _382
REMARK  158  A    between atoms: _382  and  _383
REMARK  159  A    between atoms: _386  and  _388
REMARK  160  A    between atoms: _388  and  _389
REMARK  161  A    between atoms: _388  and  _391
REMARK  162  A    between atoms: _391  and  _392
REMARK  163  A    between atoms: _392  and  _393
REMARK  164  A    between atoms: _393  and  _394
REMARK  165  A    between atoms: _394  and  _395
REMARK  166  A    between atoms: _399  and  _401
REMARK  167  A    between atoms: _401  and  _402
REMARK  168  A    between atoms: _401  and  _404
REMARK  169  A    between atoms: _404  and  _405
REMARK  170  A    between atoms: _405  and  _406
REMARK  171  A    between atoms: _408  and  _410
REMARK  172  A    between atoms: _410  and  _411
REMARK  173  A    between atoms: _410  and  _413
REMARK  174  A    between atoms: _413  and  _414
REMARK  175  A    between atoms: _417  and  _419
REMARK  176  A    between atoms: _419  and  _420
REMARK  177  A    between atoms: _419  and  _422
REMARK  178  A    between atoms: _425  and  _427
REMARK  179  A    between atoms: _427  and  _428
REMARK  180  A    between atoms: _430  and  _432
REMARK  181  A    between atoms: _432  and  _433
REMARK  182  A    between atoms: _432  and  _435
REMARK  183  A    between atoms: _435  and  _436
REMARK  184  A    between atoms: _439  and  _441
REMARK  185  A    between atoms: _441  and  _442
REMARK  186  A    between atoms: _444  and  _446
REMARK  187  A    between atoms: _446  and  _447
REMARK  188  A    between atoms: _449  and  _451
REMARK  189  A    between atoms: _451  and  _452
REMARK  190  A    between atoms: _451  and  _454
REMARK  191  A    between atoms: _457  and  _459
REMARK  192  A    between atoms: _459  and  _460
REMARK  193  A    between atoms: _459  and  _462
REMARK  194  A    between atoms: _465  and  _467
REMARK  195  A    between atoms: _467  and  _468
REMARK  196  A    between atoms: _467  and  _470
REMARK  197  A    between atoms: _470  and  _471
REMARK  198  A    between atoms: _475  and  _476
REMARK  199  A    between atoms: _481  and  _483
REMARK  200  A    between atoms: _483  and  _484
REMARK  201  A    between atoms: _483  and  _486
REMARK  202  A    between atoms: _486  and  _487
REMARK  203  A    between atoms: _491  and  _492
REMARK  204  A    between atoms: _497  and  _499
REMARK  205  A    between atoms: _499  and  _500
REMARK  206  A    between atoms: _503  and  _505
REMARK  207  A    between atoms: _505  and  _506
REMARK  208  A    between atoms: _505  and  _508
REMARK  209  A    between atoms: _508  and  _509
REMARK  210  A    between atoms: _514  and  _516
REMARK  211  A    between atoms: _516  and  _517
REMARK  212  A    between atoms: _516  and  _519
REMARK  213  A    between atoms: _519  and  _520
REMARK  214  A    between atoms: _523  and  _525
REMARK  215  A    between atoms: _525  and  _526
REMARK  216  A    between atoms: _525  and  _528
REMARK  217  A    between atoms: _528  and  _529
REMARK  218  A    between atoms: _532  and  _534
REMARK  219  A    between atoms: _534  and  _535
REMARK  220  A    between atoms: _537  and  _539
REMARK  221  A    between atoms: _539  and  _540
REMARK  222  A    between atoms: _539  and  _542
REMARK  223  A    between atoms: _542  and  _543
REMARK  224  A    between atoms: _543  and  _544
REMARK  225  A    between atoms: _544  and  _545
REMARK  226  A    between atoms: _554  and  _556
REMARK  227  A    between atoms: _556  and  _557
REMARK  228  A    between atoms: _556  and  _559
REMARK  229  A    between atoms: _559  and  _560
REMARK                            x       y       z     vdW  Elec       q    Type
REMARK                         _______ _______ _______ _____ _____    ______ ____
ROOT
ATOM      1  O   HOH     1      11.970 -24.670  22.287  0.00  0.00    +0.000 OA
ENDROOT
TORSDOF 0
REMARK  Name = ../refined-set-2016/3ekp/3ekp_pocket.pdb
REMARK  229 active torsions:
REMARK  status: ('A' for Active; 'I' for Inactive)
REMARK    1  A    between atoms: _1  and  _3
REMARK    2  A    between atoms: _3  and  _4
REMARK    3  A    between atoms: _3  and  _6
REMARK    4  A    between atoms: _6  and  _7
REMARK    5  A    between atoms: _7  and  _8
REMARK    6  A    between atoms: _8  and  _9
REMARK    7  A    between atoms: _18  and  _20
REMARK    8  A    between atoms: _20  and  _21
REMARK    9  A    between atoms: _20  and  _23
REMARK   10  A    between atoms: _23  and  _24
REMARK   11  A    between atoms: _27  and  _29
REMARK   12  A    between atoms: _29  and  _30
REMARK   13  A    between atoms: _29  and  _32
REMARK   14  A    between atoms: _32  and  _33
REMARK   15  A    between atoms: _36  and  _38
REMARK   16  A    between atoms: _38  and  _39
REMARK   17  A    between atoms: _38  and  _41
REMARK   18  A    between atoms: _41  and  _42
REMARK   19  A    between atoms: _45  and  _47
REMARK   20  A    between atoms: _47  and  _48
REMARK   21  A    between atoms: _47  and  _50
REMARK   22  A    between atoms: _50  and  _51
REMARK   23  A    between atoms: _54  and  _56
REMARK   24  A    between atoms: _56  and  _57
REMARK   25  A    between atoms: _59  and  _61
REMARK   26  A    between atoms: _61  and  _62
REMARK   27  A    between atoms: _65  and  _67
REMARK   28  A    between atoms: _67  and  _68
REMARK   29  A    between atoms: _67  and  _70
REMARK   30  A    between atoms: _70  and  _71
REMARK   31  A    between atoms: _74  and  _76
REMARK   32  A    between atoms: _76  and  _77
REMARK   33  A    between atoms: _76  and  _79
REMARK   34  A    between atoms: _79  and  _80
REMARK   35  A    between atoms: _83  and  _85
REMARK   36  A    between atoms: _85  and  _86
REMARK   37  A    between atoms: _85  and  _88
REMARK   38  A    between atoms: _88  and  _89
REMARK   39  A    between atoms: _92  and  _94
REMARK   40  A    between atoms: _94  and  _95
REMARK   41  A    between atoms: _94  and  _97
REMARK   42  A    between atoms: _100  and  _102
REMARK   43  A    between atoms: _102  and  _103
REMARK   44  A    between atoms: _102  and  _105
REMARK   45  A    between atoms: _105  and  _106
REMARK   46  A    between atoms: _109  and  _111
REMARK   47  A    between atoms: _111  and  _112
REMARK   48  A    between atoms: _111  and  _114
REMARK   49  A    between atoms: _114  and  _115
REMARK   50  A    between atoms: _115  and  _116
REMARK   51  A    between atoms: _118  and  _120
REMARK   52  A    between atoms: _120  and  _121
REMARK   53  A    between atoms: _120  and  _123
REMARK   54  A    between atoms: _123  and  _124
REMARK   55  A    between atoms: _127  and  _129
REMARK   56  A    between atoms: _129  and  _130
REMARK   57  A    between atoms: _129  and  _132
REMARK   58  A    between atoms: _135  and  _137
REMARK   59  A    between atoms: _137  and  _138
REMARK   60  A    between atoms: _140  and  _142
REMARK   61  A    between atoms: _142  and  _143
REMARK   62  A    between atoms: _142  and  _145
REMARK   63  A    between atoms: _145  and  _146
REMARK   64  A    between atoms: _149  and  _151
REMARK   65  A    between atoms: _151  and  _152
REMARK   66  A    between atoms: _154  and  _156
REMARK   67  A    between atoms: _156  and  _157
REMARK   68  A    between atoms: _159  and  _161
REMARK   69  A    between atoms: _161  and  _162
REMARK   70  A    between atoms: _161  and  _164
REMARK   71  A    between atoms: _167  and  _169
REMARK   72  A    between atoms: _169  and  _170
REMARK   73  A    between atoms: _169  and  _172
REMARK   74  A    between atoms: _175  and  _177
REMARK   75  A    between atoms: _177  and  _178
REMARK   76  A    between atoms: _177  and  _180
REMARK   77  A    between atoms: _180  and  _181
REMARK   78  A    between atoms: _184  and  _186
REMARK   79  A    between atoms: _186  and  _187
REMARK   80  A    between atoms: _186  and  _189
REMARK   81  A    between atoms: _189  and  _190
REMARK   82  A    between atoms: _194  and  _195
REMARK   83  A    between atoms: _200  and  _202
REMARK   84  A    between atoms: _202  and  _203
REMARK   85  A    between atoms: _206  and  _208
REMARK   86  A    between atoms: _208  and  _209
REMARK   87  A    between atoms: _208  and  _211
REMARK   88  A    between atoms: _211  and  _212
REMARK   89  A    between atoms: _217  and  _219
REMARK   90  A    between atoms: _219  and  _220
REMARK   91  A    between atoms: _219  and  _222
REMARK   92  A    between atoms: _222  and  _223
REMARK   93  A    between atoms: _226  and  _228
REMARK   94  A    between atoms: _228  and  _229
REMARK   95  A    between atoms: _228  and  _231
REMARK   96  A    between atoms: _231  and  _232
REMARK   97  A    between atoms: _235  and  _237
REMARK   98  A    between atoms: _237  and  _238
REMARK   99  A    between atoms: _240  and  _242
REMARK  100  A    between atoms: _242  and  _243
REMARK  101  A    between atoms: _242  and  _245
REMARK  102  A    between atoms: _245  and  _246
REMARK  103  A    between atoms: _246  and  _247
REMARK  104  A    between atoms: _247  and  _248
REMARK  105  A    between atoms: _257  and  _259
REMARK  106  A    between atoms: _259  and  _260
REMARK  107  A    between atoms: _259  and  _262
REMARK  108  A    between atoms: _262  and  _263
REMARK  109  A    between atoms: _268  and  _270
REMARK  110  A    between atoms: _270  and  _271
REMARK  111  A    between atoms: _270  and  _273
REMARK  112  A    between atoms: _273  and  _274
REMARK  113  A    between atoms: _274  and  _275
REMARK  114  A    between atoms: _275  and  _276
REMARK  115  A    between atoms: _285  and  _287
REMARK  116  A    between atoms: _287  and  _288
REMARK  117  A    between atoms: _287  and  _290
REMARK  118  A    between atoms: _290  and  _291
REMARK  119  A    between atoms: _294  and  _296
REMARK  120  A    between atoms: _296  and  _297
REMARK  121  A    between atoms: _296  and  _299
REMARK  122  A    between atoms: _299  and  _300
REMARK  123  A    between atoms: _303  and  _305
REMARK  124  A    between atoms: _305  and  _306
REMARK  125  A    between atoms: _305  and  _308
REMARK  126  A    between atoms: _308  and  _309
REMARK  127  A    between atoms: _312  and  _314
REMARK  128  A    between atoms: _314  and  _315
REMARK  129  A    between atoms: _314  and  _317
REMARK  130  A    between atoms: _317  and  _318
REMARK  131  A    between atoms: _321  and  _323
REMARK  132  A    between atoms: _323  and  _324
REMARK  133  A    between atoms: _326  and  _328
REMARK  134  A    between atoms: _328  and  _329
REMARK  135  A    between atoms: _332  and  _334
REMARK  136  A    between atoms: _334  and  _335
REMARK  137  A    between atoms: _334  and  _337
REMARK  138  A    between atoms: _337  and  _338
REMARK  139  A    between atoms: _341  and  _343
REMARK  140  A    between atoms: _343  and  _344
REMARK  141  A    between atoms: _343  and  _346
REMARK  142  A    between atoms: _346  and  _347
REMARK  143  A    between atoms: _350  and  _352
REMARK  144  A    between atoms: _352  and  _353
REMARK  145  A    between atoms: _352  and  _355
REMARK  146  A    between atoms: _355  and  _356
REMARK  147  A    between atoms: _359  and  _361
REMARK  148  A    between atoms: _361  and  _362
REMARK  149  A    between atoms: _361  and  _364
REMARK  150  A    between atoms: _367  and  _369
REMARK  151  A    between atoms: _369  and  _370
REMARK  152  A    between atoms: _369  and  _372
REMARK  153  A    between atoms: _372  and  _373
REMARK  154  A    between atoms: _376  and  _378
REMARK  155  A    between atoms: _378  and  _379
REMARK  156  A    between atoms: _378  and  _381
REMARK  157  A    between atoms: _381  and  _382
REMARK  158  A    between atoms: _382  and  _383
REMARK  159  A    between atoms: _386  and  _388
REMARK  160  A    between atoms: _388  and  _389
REMARK  161  A    between atoms: _388  and  _391
REMARK  162  A    between atoms: _391  and  _392
REMARK  163  A    between atoms: _392  and  _393
REMARK  164  A    between atoms: _393  and  _394
REMARK  165  A    between atoms: _394  and  _395
REMARK  166  A    between atoms: _399  and  _401
REMARK  167  A    between atoms: _401  and  _402
REMARK  168  A    between atoms: _401  and  _404
REMARK  169  A    between atoms: _404  and  _405
REMARK  170  A    between atoms: _405  and  _406
REMARK  171  A    between atoms: _408  and  _410
REMARK  172  A    between atoms: _410  and  _411
REMARK  173  A    between atoms: _410  and  _413
REMARK  174  A    between atoms: _413  and  _414
REMARK  175  A    between atoms: _417  and  _419
REMARK  176  A    between atoms: _419  and  _420
REMARK  177  A    between atoms: _419  and  _422
REMARK  178  A    between atoms: _425  and  _427
REMARK  179  A    between atoms: _427  and  _428
REMARK  180  A    between atoms: _430  and  _432
REMARK  181  A    between atoms: _432  and  _433
REMARK  182  A    between atoms: _432  and  _435
REMARK  183  A    between atoms: _435  and  _436
REMARK  184  A    between atoms: _439  and  _441
REMARK  185  A    between atoms: _441  and  _442
REMARK  186  A    between atoms: _444  and  _446
REMARK  187  A    between atoms: _446  and  _447
REMARK  188  A    between atoms: _449  and  _451
REMARK  189  A    between atoms: _451  and  _452
REMARK  190  A    between atoms: _451  and  _454
REMARK  191  A    between atoms: _457  and  _459
REMARK  192  A    between atoms: _459  and  _460
REMARK  193  A    between atoms: _459  and  _462
REMARK  194  A    between atoms: _465  and  _467
REMARK  195  A    between atoms: _467  and  _468
REMARK  196  A    between atoms: _467  and  _470
REMARK  197  A    between atoms: _470  and  _471
REMARK  198  A    between atoms: _475  and  _476
REMARK  199  A    between atoms: _481  and  _483
REMARK  200  A    between atoms: _483  and  _484
REMARK  201  A    between atoms: _483  and  _486
REMARK  202  A    between atoms: _486  and  _487
REMARK  203  A    between atoms: _491  and  _492
REMARK  204  A    between atoms: _497  and  _499
REMARK  205  A    between atoms: _499  and  _500
REMARK  206  A    between atoms: _503  and  _505
REMARK  207  A    between atoms: _505  and  _506
REMARK  208  A    between atoms: _505  and  _508
REMARK  209  A    between atoms: _508  and  _509
REMARK  210  A    between atoms: _514  and  _516
REMARK  211  A    between atoms: _516  and  _517
REMARK  212  A    between atoms: _516  and  _519
REMARK  213  A    between atoms: _519  and  _520
REMARK  214  A    between atoms: _523  and  _525
REMARK  215  A    between atoms: _525  and  _526
REMARK  216  A    between atoms: _525  and  _528
REMARK  217  A    between atoms: _528  and  _529
REMARK  218  A    between atoms: _532  and  _534
REMARK  219  A    between atoms: _534  and  _535
REMARK  220  A    between atoms: _537  and  _539
REMARK  221  A    between atoms: _539  and  _540
REMARK  222  A    between atoms: _539  and  _542
REMARK  223  A    between atoms: _542  and  _543
REMARK  224  A    between atoms: _543  and  _544
REMARK  225  A    between atoms: _544  and  _545
REMARK  226  A    between atoms: _554  and  _556
REMARK  227  A    between atoms: _556  and  _557
REMARK  228  A    between atoms: _556  and  _559
REMARK  229  A    between atoms: _559  and  _560
REMARK                            x       y       z     vdW  Elec       q    Type
REMARK                         _______ _______ _______ _____ _____    ______ ____
ROOT
ATOM      1  O   HOH     1      20.646 -18.616  36.135  0.00  0.00    +0.000 OA
ENDROOT
TORSDOF 0
REMARK  Name = ../refined-set-2016/3ekp/3ekp_pocket.pdb
REMARK  229 active torsions:
REMARK  status: ('A' for Active; 'I' for Inactive)
REMARK    1  A    between atoms: _1  and  _3
REMARK    2  A    between atoms: _3  and  _4
REMARK    3  A    between atoms: _3  and  _6
REMARK    4  A    between atoms: _6  and  _7
REMARK    5  A    between atoms: _7  and  _8
REMARK    6  A    between atoms: _8  and  _9
REMARK    7  A    between atoms: _18  and  _20
REMARK    8  A    between atoms: _20  and  _21
REMARK    9  A    between atoms: _20  and  _23
REMARK   10  A    between atoms: _23  and  _24
REMARK   11  A    between atoms: _27  and  _29
REMARK   12  A    between atoms: _29  and  _30
REMARK   13  A    between atoms: _29  and  _32
REMARK   14  A    between atoms: _32  and  _33
REMARK   15  A    between atoms: _36  and  _38
REMARK   16  A    between atoms: _38  and  _39
REMARK   17  A    between atoms: _38  and  _41
REMARK   18  A    between atoms: _41  and  _42
REMARK   19  A    between atoms: _45  and  _47
REMARK   20  A    between atoms: _47  and  _48
REMARK   21  A    between atoms: _47  and  _50
REMARK   22  A    between atoms: _50  and  _51
REMARK   23  A    between atoms: _54  and  _56
REMARK   24  A    between atoms: _56  and  _57
REMARK   25  A    between atoms: _59  and  _61
REMARK   26  A    between atoms: _61  and  _62
REMARK   27  A    between atoms: _65  and  _67
REMARK   28  A    between atoms: _67  and  _68
REMARK   29  A    between atoms: _67  and  _70
REMARK   30  A    between atoms: _70  and  _71
REMARK   31  A    between atoms: _74  and  _76
REMARK   32  A    between atoms: _76  and  _77
REMARK   33  A    between atoms: _76  and  _79
REMARK   34  A    between atoms: _79  and  _80
REMARK   35  A    between atoms: _83  and  _85
REMARK   36  A    between atoms: _85  and  _86
REMARK   37  A    between atoms: _85  and  _88
REMARK   38  A    between atoms: _88  and  _89
REMARK   39  A    between atoms: _92  and  _94
REMARK   40  A    between atoms: _94  and  _95
REMARK   41  A    between atoms: _94  and  _97
REMARK   42  A    between atoms: _100  and  _102
REMARK   43  A    between atoms: _102  and  _103
REMARK   44  A    between atoms: _102  and  _105
REMARK   45  A    between atoms: _105  and  _106
REMARK   46  A    between atoms: _109  and  _111
REMARK   47  A    between atoms: _111  and  _112
REMARK   48  A    between atoms: _111  and  _114
REMARK   49  A    between atoms: _114  and  _115
REMARK   50  A    between atoms: _115  and  _116
REMARK   51  A    between atoms: _118  and  _120
REMARK   52  A    between atoms: _120  and  _121
REMARK   53  A    between atoms: _120  and  _123
REMARK   54  A    between atoms: _123  and  _124
REMARK   55  A    between atoms: _127  and  _129
REMARK   56  A    between atoms: _129  and  _130
REMARK   57  A    between atoms: _129  and  _132
REMARK   58  A    between atoms: _135  and  _137
REMARK   59  A    between atoms: _137  and  _138
REMARK   60  A    between atoms: _140  and  _142
REMARK   61  A    between atoms: _142  and  _143
REMARK   62  A    between atoms: _142  and  _145
REMARK   63  A    between atoms: _145  and  _146
REMARK   64  A    between atoms: _149  and  _151
REMARK   65  A    between atoms: _151  and  _152
REMARK   66  A    between atoms: _154  and  _156
REMARK   67  A    between atoms: _156  and  _157
REMARK   68  A    between atoms: _159  and  _161
REMARK   69  A    between atoms: _161  and  _162
REMARK   70  A    between atoms: _161  and  _164
REMARK   71  A    between atoms: _167  and  _169
REMARK   72  A    between atoms: _169  and  _170
REMARK   73  A    between atoms: _169  and  _172
REMARK   74  A    between atoms: _175  and  _177
REMARK   75  A    between atoms: _177  and  _178
REMARK   76  A    between atoms: _177  and  _180
REMARK   77  A    between atoms: _180  and  _181
REMARK   78  A    between atoms: _184  and  _186
REMARK   79  A    between atoms: _186  and  _187
REMARK   80  A    between atoms: _186  and  _189
REMARK   81  A    between atoms: _189  and  _190
REMARK   82  A    between atoms: _194  and  _195
REMARK   83  A    between atoms: _200  and  _202
REMARK   84  A    between atoms: _202  and  _203
REMARK   85  A    between atoms: _206  and  _208
REMARK   86  A    between atoms: _208  and  _209
REMARK   87  A    between atoms: _208  and  _211
REMARK   88  A    between atoms: _211  and  _212
REMARK   89  A    between atoms: _217  and  _219
REMARK   90  A    between atoms: _219  and  _220
REMARK   91  A    between atoms: _219  and  _222
REMARK   92  A    between atoms: _222  and  _223
REMARK   93  A    between atoms: _226  and  _228
REMARK   94  A    between atoms: _228  and  _229
REMARK   95  A    between atoms: _228  and  _231
REMARK   96  A    between atoms: _231  and  _232
REMARK   97  A    between atoms: _235  and  _237
REMARK   98  A    between atoms: _237  and  _238
REMARK   99  A    between atoms: _240  and  _242
REMARK  100  A    between atoms: _242  and  _243
REMARK  101  A    between atoms: _242  and  _245
REMARK  102  A    between atoms: _245  and  _246
REMARK  103  A    between atoms: _246  and  _247
REMARK  104  A    between atoms: _247  and  _248
REMARK  105  A    between atoms: _257  and  _259
REMARK  106  A    between atoms: _259  and  _260
REMARK  107  A    between atoms: _259  and  _262
REMARK  108  A    between atoms: _262  and  _263
REMARK  109  A    between atoms: _268  and  _270
REMARK  110  A    between atoms: _270  and  _271
REMARK  111  A    between atoms: _270  and  _273
REMARK  112  A    between atoms: _273  and  _274
REMARK  113  A    between atoms: _274  and  _275
REMARK  114  A    between atoms: _275  and  _276
REMARK  115  A    between atoms: _285  and  _287
REMARK  116  A    between atoms: _287  and  _288
REMARK  117  A    between atoms: _287  and  _290
REMARK  118  A    between atoms: _290  and  _291
REMARK  119  A    between atoms: _294  and  _296
REMARK  120  A    between atoms: _296  and  _297
REMARK  121  A    between atoms: _296  and  _299
REMARK  122  A    between atoms: _299  and  _300
REMARK  123  A    between atoms: _303  and  _305
REMARK  124  A    between atoms: _305  and  _306
REMARK  125  A    between atoms: _305  and  _308
REMARK  126  A    between atoms: _308  and  _309
REMARK  127  A    between atoms: _312  and  _314
REMARK  128  A    between atoms: _314  and  _315
REMARK  129  A    between atoms: _314  and  _317
REMARK  130  A    between atoms: _317  and  _318
REMARK  131  A    between atoms: _321  and  _323
REMARK  132  A    between atoms: _323  and  _324
REMARK  133  A    between atoms: _326  and  _328
REMARK  134  A    between atoms: _328  and  _329
REMARK  135  A    between atoms: _332  and  _334
REMARK  136  A    between atoms: _334  and  _335
REMARK  137  A    between atoms: _334  and  _337
REMARK  138  A    between atoms: _337  and  _338
REMARK  139  A    between atoms: _341  and  _343
REMARK  140  A    between atoms: _343  and  _344
REMARK  141  A    between atoms: _343  and  _346
REMARK  142  A    between atoms: _346  and  _347
REMARK  143  A    between atoms: _350  and  _352
REMARK  144  A    between atoms: _352  and  _353
REMARK  145  A    between atoms: _352  and  _355
REMARK  146  A    between atoms: _355  and  _356
REMARK  147  A    between atoms: _359  and  _361
REMARK  148  A    between atoms: _361  and  _362
REMARK  149  A    between atoms: _361  and  _364
REMARK  150  A    between atoms: _367  and  _369
REMARK  151  A    between atoms: _369  and  _370
REMARK  152  A    between atoms: _369  and  _372
REMARK  153  A    between atoms: _372  and  _373
REMARK  154  A    between atoms: _376  and  _378
REMARK  155  A    between atoms: _378  and  _379
REMARK  156  A    between atoms: _378  and  _381
REMARK  157  A    between atoms: _381  and  _382
REMARK  158  A    between atoms: _382  and  _383
REMARK  159  A    between atoms: _386  and  _388
REMARK  160  A    between atoms: _388  and  _389
REMARK  161  A    between atoms: _388  and  _391
REMARK  162  A    between atoms: _391  and  _392
REMARK  163  A    between atoms: _392  and  _393
REMARK  164  A    between atoms: _393  and  _394
REMARK  165  A    between atoms: _394  and  _395
REMARK  166  A    between atoms: _399  and  _401
REMARK  167  A    between atoms: _401  and  _402
REMARK  168  A    between atoms: _401  and  _404
REMARK  169  A    between atoms: _404  and  _405
REMARK  170  A    between atoms: _405  and  _406
REMARK  171  A    between atoms: _408  and  _410
REMARK  172  A    between atoms: _410  and  _411
REMARK  173  A    between atoms: _410  and  _413
REMARK  174  A    between atoms: _413  and  _414
REMARK  175  A    between atoms: _417  and  _419
REMARK  176  A    between atoms: _419  and  _420
REMARK  177  A    between atoms: _419  and  _422
REMARK  178  A    between atoms: _425  and  _427
REMARK  179  A    between atoms: _427  and  _428
REMARK  180  A    between atoms: _430  and  _432
REMARK  181  A    between atoms: _432  and  _433
REMARK  182  A    between atoms: _432  and  _435
REMARK  183  A    between atoms: _435  and  _436
REMARK  184  A    between atoms: _439  and  _441
REMARK  185  A    between atoms: _441  and  _442
REMARK  186  A    between atoms: _444  and  _446
REMARK  187  A    between atoms: _446  and  _447
REMARK  188  A    between atoms: _449  and  _451
REMARK  189  A    between atoms: _451  and  _452
REMARK  190  A    between atoms: _451  and  _454
REMARK  191  A    between atoms: _457  and  _459
REMARK  192  A    between atoms: _459  and  _460
REMARK  193  A    between atoms: _459  and  _462
REMARK  194  A    between atoms: _465  and  _467
REMARK  195  A    between atoms: _467  and  _468
REMARK  196  A    between atoms: _467  and  _470
REMARK  197  A    between atoms: _470  and  _471
REMARK  198  A    between atoms: _475  and  _476
REMARK  199  A    between atoms: _481  and  _483
REMARK  200  A    between atoms: _483  and  _484
REMARK  201  A    between atoms: _483  and  _486
REMARK  202  A    between atoms: _486  and  _487
REMARK  203  A    between atoms: _491  and  _492
REMARK  204  A    between atoms: _497  and  _499
REMARK  205  A    between atoms: _499  and  _500
REMARK  206  A    between atoms: _503  and  _505
REMARK  207  A    between atoms: _505  and  _506
REMARK  208  A    between atoms: _505  and  _508
REMARK  209  A    between atoms: _508  and  _509
REMARK  210  A    between atoms: _514  and  _516
REMARK  211  A    between atoms: _516  and  _517
REMARK  212  A    between atoms: _516  and  _519
REMARK  213  A    between atoms: _519  and  _520
REMARK  214  A    between atoms: _523  and  _525
REMARK  215  A    between atoms: _525  and  _526
REMARK  216  A    between atoms: _525  and  _528
REMARK  217  A    between atoms: _528  and  _529
REMARK  218  A    between atoms: _532  and  _534
REMARK  219  A    between atoms: _534  and  _535
REMARK  220  A    between atoms: _537  and  _539
REMARK  221  A    between atoms: _539  and  _540
REMARK  222  A    between atoms: _539  and  _542
REMARK  223  A    between atoms: _542  and  _543
REMARK  224  A    between atoms: _543  and  _544
REMARK  225  A    between atoms: _544  and  _545
REMARK  226  A    between atoms: _554  and  _556
REMARK  227  A    between atoms: _556  and  _557
REMARK  228  A    between atoms: _556  and  _559
REMARK  229  A    between atoms: _559  and  _560
REMARK                            x       y       z     vdW  Elec       q    Type
REMARK                         _______ _______ _______ _____ _____    ______ ____
ROOT
ATOM      1  O   HOH     1       8.291 -25.112  31.570  0.00  0.00    +0.000 OA
ENDROOT
TORSDOF 0
REMARK  Name = ../refined-set-2016/3ekp/3ekp_pocket.pdb
REMARK  229 active torsions:
REMARK  status: ('A' for Active; 'I' for Inactive)
REMARK    1  A    between atoms: _1  and  _3
REMARK    2  A    between atoms: _3  and  _4
REMARK    3  A    between atoms: _3  and  _6
REMARK    4  A    between atoms: _6  and  _7
REMARK    5  A    between atoms: _7  and  _8
REMARK    6  A    between atoms: _8  and  _9
REMARK    7  A    between atoms: _18  and  _20
REMARK    8  A    between atoms: _20  and  _21
REMARK    9  A    between atoms: _20  and  _23
REMARK   10  A    between atoms: _23  and  _24
REMARK   11  A    between atoms: _27  and  _29
REMARK   12  A    between atoms: _29  and  _30
REMARK   13  A    between atoms: _29  and  _32
REMARK   14  A    between atoms: _32  and  _33
REMARK   15  A    between atoms: _36  and  _38
REMARK   16  A    between atoms: _38  and  _39
REMARK   17  A    between atoms: _38  and  _41
REMARK   18  A    between atoms: _41  and  _42
REMARK   19  A    between atoms: _45  and  _47
REMARK   20  A    between atoms: _47  and  _48
REMARK   21  A    between atoms: _47  and  _50
REMARK   22  A    between atoms: _50  and  _51
REMARK   23  A    between atoms: _54  and  _56
REMARK   24  A    between atoms: _56  and  _57
REMARK   25  A    between atoms: _59  and  _61
REMARK   26  A    between atoms: _61  and  _62
REMARK   27  A    between atoms: _65  and  _67
REMARK   28  A    between atoms: _67  and  _68
REMARK   29  A    between atoms: _67  and  _70
REMARK   30  A    between atoms: _70  and  _71
REMARK   31  A    between atoms: _74  and  _76
REMARK   32  A    between atoms: _76  and  _77
REMARK   33  A    between atoms: _76  and  _79
REMARK   34  A    between atoms: _79  and  _80
REMARK   35  A    between atoms: _83  and  _85
REMARK   36  A    between atoms: _85  and  _86
REMARK   37  A    between atoms: _85  and  _88
REMARK   38  A    between atoms: _88  and  _89
REMARK   39  A    between atoms: _92  and  _94
REMARK   40  A    between atoms: _94  and  _95
REMARK   41  A    between atoms: _94  and  _97
REMARK   42  A    between atoms: _100  and  _102
REMARK   43  A    between atoms: _102  and  _103
REMARK   44  A    between atoms: _102  and  _105
REMARK   45  A    between atoms: _105  and  _106
REMARK   46  A    between atoms: _109  and  _111
REMARK   47  A    between atoms: _111  and  _112
REMARK   48  A    between atoms: _111  and  _114
REMARK   49  A    between atoms: _114  and  _115
REMARK   50  A    between atoms: _115  and  _116
REMARK   51  A    between atoms: _118  and  _120
REMARK   52  A    between atoms: _120  and  _121
REMARK   53  A    between atoms: _120  and  _123
REMARK   54  A    between atoms: _123  and  _124
REMARK   55  A    between atoms: _127  and  _129
REMARK   56  A    between atoms: _129  and  _130
REMARK   57  A    between atoms: _129  and  _132
REMARK   58  A    between atoms: _135  and  _137
REMARK   59  A    between atoms: _137  and  _138
REMARK   60  A    between atoms: _140  and  _142
REMARK   61  A    between atoms: _142  and  _143
REMARK   62  A    between atoms: _142  and  _145
REMARK   63  A    between atoms: _145  and  _146
REMARK   64  A    between atoms: _149  and  _151
REMARK   65  A    between atoms: _151  and  _152
REMARK   66  A    between atoms: _154  and  _156
REMARK   67  A    between atoms: _156  and  _157
REMARK   68  A    between atoms: _159  and  _161
REMARK   69  A    between atoms: _161  and  _162
REMARK   70  A    between atoms: _161  and  _164
REMARK   71  A    between atoms: _167  and  _169
REMARK   72  A    between atoms: _169  and  _170
REMARK   73  A    between atoms: _169  and  _172
REMARK   74  A    between atoms: _175  and  _177
REMARK   75  A    between atoms: _177  and  _178
REMARK   76  A    between atoms: _177  and  _180
REMARK   77  A    between atoms: _180  and  _181
REMARK   78  A    between atoms: _184  and  _186
REMARK   79  A    between atoms: _186  and  _187
REMARK   80  A    between atoms: _186  and  _189
REMARK   81  A    between atoms: _189  and  _190
REMARK   82  A    between atoms: _194  and  _195
REMARK   83  A    between atoms: _200  and  _202
REMARK   84  A    between atoms: _202  and  _203
REMARK   85  A    between atoms: _206  and  _208
REMARK   86  A    between atoms: _208  and  _209
REMARK   87  A    between atoms: _208  and  _211
REMARK   88  A    between atoms: _211  and  _212
REMARK   89  A    between atoms: _217  and  _219
REMARK   90  A    between atoms: _219  and  _220
REMARK   91  A    between atoms: _219  and  _222
REMARK   92  A    between atoms: _222  and  _223
REMARK   93  A    between atoms: _226  and  _228
REMARK   94  A    between atoms: _228  and  _229
REMARK   95  A    between atoms: _228  and  _231
REMARK   96  A    between atoms: _231  and  _232
REMARK   97  A    between atoms: _235  and  _237
REMARK   98  A    between atoms: _237  and  _238
REMARK   99  A    between atoms: _240  and  _242
REMARK  100  A    between atoms: _242  and  _243
REMARK  101  A    between atoms: _242  and  _245
REMARK  102  A    between atoms: _245  and  _246
REMARK  103  A    between atoms: _246  and  _247
REMARK  104  A    between atoms: _247  and  _248
REMARK  105  A    between atoms: _257  and  _259
REMARK  106  A    between atoms: _259  and  _260
REMARK  107  A    between atoms: _259  and  _262
REMARK  108  A    between atoms: _262  and  _263
REMARK  109  A    between atoms: _268  and  _270
REMARK  110  A    between atoms: _270  and  _271
REMARK  111  A    between atoms: _270  and  _273
REMARK  112  A    between atoms: _273  and  _274
REMARK  113  A    between atoms: _274  and  _275
REMARK  114  A    between atoms: _275  and  _276
REMARK  115  A    between atoms: _285  and  _287
REMARK  116  A    between atoms: _287  and  _288
REMARK  117  A    between atoms: _287  and  _290
REMARK  118  A    between atoms: _290  and  _291
REMARK  119  A    between atoms: _294  and  _296
REMARK  120  A    between atoms: _296  and  _297
REMARK  121  A    between atoms: _296  and  _299
REMARK  122  A    between atoms: _299  and  _300
REMARK  123  A    between atoms: _303  and  _305
REMARK  124  A    between atoms: _305  and  _306
REMARK  125  A    between atoms: _305  and  _308
REMARK  126  A    between atoms: _308  and  _309
REMARK  127  A    between atoms: _312  and  _314
REMARK  128  A    between atoms: _314  and  _315
REMARK  129  A    between atoms: _314  and  _317
REMARK  130  A    between atoms: _317  and  _318
REMARK  131  A    between atoms: _321  and  _323
REMARK  132  A    between atoms: _323  and  _324
REMARK  133  A    between atoms: _326  and  _328
REMARK  134  A    between atoms: _328  and  _329
REMARK  135  A    between atoms: _332  and  _334
REMARK  136  A    between atoms: _334  and  _335
REMARK  137  A    between atoms: _334  and  _337
REMARK  138  A    between atoms: _337  and  _338
REMARK  139  A    between atoms: _341  and  _343
REMARK  140  A    between atoms: _343  and  _344
REMARK  141  A    between atoms: _343  and  _346
REMARK  142  A    between atoms: _346  and  _347
REMARK  143  A    between atoms: _350  and  _352
REMARK  144  A    between atoms: _352  and  _353
REMARK  145  A    between atoms: _352  and  _355
REMARK  146  A    between atoms: _355  and  _356
REMARK  147  A    between atoms: _359  and  _361
REMARK  148  A    between atoms: _361  and  _362
REMARK  149  A    between atoms: _361  and  _364
REMARK  150  A    between atoms: _367  and  _369
REMARK  151  A    between atoms: _369  and  _370
REMARK  152  A    between atoms: _369  and  _372
REMARK  153  A    between atoms: _372  and  _373
REMARK  154  A    between atoms: _376  and  _378
REMARK  155  A    between atoms: _378  and  _379
REMARK  156  A    between atoms: _378  and  _381
REMARK  157  A    between atoms: _381  and  _382
REMARK  158  A    between atoms: _382  and  _383
REMARK  159  A    between atoms: _386  and  _388
REMARK  160  A    between atoms: _388  and  _389
REMARK  161  A    between atoms: _388  and  _391
REMARK  162  A    between atoms: _391  and  _392
REMARK  163  A    between atoms: _392  and  _393
REMARK  164  A    between atoms: _393  and  _394
REMARK  165  A    between atoms: _394  and  _395
REMARK  166  A    between atoms: _399  and  _401
REMARK  167  A    between atoms: _401  and  _402
REMARK  168  A    between atoms: _401  and  _404
REMARK  169  A    between atoms: _404  and  _405
REMARK  170  A    between atoms: _405  and  _406
REMARK  171  A    between atoms: _408  and  _410
REMARK  172  A    between atoms: _410  and  _411
REMARK  173  A    between atoms: _410  and  _413
REMARK  174  A    between atoms: _413  and  _414
REMARK  175  A    between atoms: _417  and  _419
REMARK  176  A    between atoms: _419  and  _420
REMARK  177  A    between atoms: _419  and  _422
REMARK  178  A    between atoms: _425  and  _427
REMARK  179  A    between atoms: _427  and  _428
REMARK  180  A    between atoms: _430  and  _432
REMARK  181  A    between atoms: _432  and  _433
REMARK  182  A    between atoms: _432  and  _435
REMARK  183  A    between atoms: _435  and  _436
REMARK  184  A    between atoms: _439  and  _441
REMARK  185  A    between atoms: _441  and  _442
REMARK  186  A    between atoms: _444  and  _446
REMARK  187  A    between atoms: _446  and  _447
REMARK  188  A    between atoms: _449  and  _451
REMARK  189  A    between atoms: _451  and  _452
REMARK  190  A    between atoms: _451  and  _454
REMARK  191  A    between atoms: _457  and  _459
REMARK  192  A    between atoms: _459  and  _460
REMARK  193  A    between atoms: _459  and  _462
REMARK  194  A    between atoms: _465  and  _467
REMARK  195  A    between atoms: _467  and  _468
REMARK  196  A    between atoms: _467  and  _470
REMARK  197  A    between atoms: _470  and  _471
REMARK  198  A    between atoms: _475  and  _476
REMARK  199  A    between atoms: _481  and  _483
REMARK  200  A    between atoms: _483  and  _484
REMARK  201  A    between atoms: _483  and  _486
REMARK  202  A    between atoms: _486  and  _487
REMARK  203  A    between atoms: _491  and  _492
REMARK  204  A    between atoms: _497  and  _499
REMARK  205  A    between atoms: _499  and  _500
REMARK  206  A    between atoms: _503  and  _505
REMARK  207  A    between atoms: _505  and  _506
REMARK  208  A    between atoms: _505  and  _508
REMARK  209  A    between atoms: _508  and  _509
REMARK  210  A    between atoms: _514  and  _516
REMARK  211  A    between atoms: _516  and  _517
REMARK  212  A    between atoms: _516  and  _519
REMARK  213  A    between atoms: _519  and  _520
REMARK  214  A    between atoms: _523  and  _525
REMARK  215  A    between atoms: _525  and  _526
REMARK  216  A    between atoms: _525  and  _528
REMARK  217  A    between atoms: _528  and  _529
REMARK  218  A    between atoms: _532  and  _534
REMARK  219  A    between atoms: _534  and  _535
REMARK  220  A    between atoms: _537  and  _539
REMARK  221  A    between atoms: _539  and  _540
REMARK  222  A    between atoms: _539  and  _542
REMARK  223  A    between atoms: _542  and  _543
REMARK  224  A    between atoms: _543  and  _544
REMARK  225  A    between atoms: _544  and  _545
REMARK  226  A    between atoms: _554  and  _556
REMARK  227  A    between atoms: _556  and  _557
REMARK  228  A    between atoms: _556  and  _559
REMARK  229  A    between atoms: _559  and  _560
REMARK                            x       y       z     vdW  Elec       q    Type
REMARK                         _______ _______ _______ _____ _____    ______ ____
ROOT
ATOM      1  O   HOH     1       6.775 -23.383  32.301  0.00  0.00    +0.000 OA
ENDROOT
TORSDOF 0
REMARK  Name = ../refined-set-2016/3ekp/3ekp_pocket.pdb
REMARK  229 active torsions:
REMARK  status: ('A' for Active; 'I' for Inactive)
REMARK    1  A    between atoms: _1  and  _3
REMARK    2  A    between atoms: _3  and  _4
REMARK    3  A    between atoms: _3  and  _6
REMARK    4  A    between atoms: _6  and  _7
REMARK    5  A    between atoms: _7  and  _8
REMARK    6  A    between atoms: _8  and  _9
REMARK    7  A    between atoms: _18  and  _20
REMARK    8  A    between atoms: _20  and  _21
REMARK    9  A    between atoms: _20  and  _23
REMARK   10  A    between atoms: _23  and  _24
REMARK   11  A    between atoms: _27  and  _29
REMARK   12  A    between atoms: _29  and  _30
REMARK   13  A    between atoms: _29  and  _32
REMARK   14  A    between atoms: _32  and  _33
REMARK   15  A    between atoms: _36  and  _38
REMARK   16  A    between atoms: _38  and  _39
REMARK   17  A    between atoms: _38  and  _41
REMARK   18  A    between atoms: _41  and  _42
REMARK   19  A    between atoms: _45  and  _47
REMARK   20  A    between atoms: _47  and  _48
REMARK   21  A    between atoms: _47  and  _50
REMARK   22  A    between atoms: _50  and  _51
REMARK   23  A    between atoms: _54  and  _56
REMARK   24  A    between atoms: _56  and  _57
REMARK   25  A    between atoms: _59  and  _61
REMARK   26  A    between atoms: _61  and  _62
REMARK   27  A    between atoms: _65  and  _67
REMARK   28  A    between atoms: _67  and  _68
REMARK   29  A    between atoms: _67  and  _70
REMARK   30  A    between atoms: _70  and  _71
REMARK   31  A    between atoms: _74  and  _76
REMARK   32  A    between atoms: _76  and  _77
REMARK   33  A    between atoms: _76  and  _79
REMARK   34  A    between atoms: _79  and  _80
REMARK   35  A    between atoms: _83  and  _85
REMARK   36  A    between atoms: _85  and  _86
REMARK   37  A    between atoms: _85  and  _88
REMARK   38  A    between atoms: _88  and  _89
REMARK   39  A    between atoms: _92  and  _94
REMARK   40  A    between atoms: _94  and  _95
REMARK   41  A    between atoms: _94  and  _97
REMARK   42  A    between atoms: _100  and  _102
REMARK   43  A    between atoms: _102  and  _103
REMARK   44  A    between atoms: _102  and  _105
REMARK   45  A    between atoms: _105  and  _106
REMARK   46  A    between atoms: _109  and  _111
REMARK   47  A    between atoms: _111  and  _112
REMARK   48  A    between atoms: _111  and  _114
REMARK   49  A    between atoms: _114  and  _115
REMARK   50  A    between atoms: _115  and  _116
REMARK   51  A    between atoms: _118  and  _120
REMARK   52  A    between atoms: _120  and  _121
REMARK   53  A    between atoms: _120  and  _123
REMARK   54  A    between atoms: _123  and  _124
REMARK   55  A    between atoms: _127  and  _129
REMARK   56  A    between atoms: _129  and  _130
REMARK   57  A    between atoms: _129  and  _132
REMARK   58  A    between atoms: _135  and  _137
REMARK   59  A    between atoms: _137  and  _138
REMARK   60  A    between atoms: _140  and  _142
REMARK   61  A    between atoms: _142  and  _143
REMARK   62  A    between atoms: _142  and  _145
REMARK   63  A    between atoms: _145  and  _146
REMARK   64  A    between atoms: _149  and  _151
REMARK   65  A    between atoms: _151  and  _152
REMARK   66  A    between atoms: _154  and  _156
REMARK   67  A    between atoms: _156  and  _157
REMARK   68  A    between atoms: _159  and  _161
REMARK   69  A    between atoms: _161  and  _162
REMARK   70  A    between atoms: _161  and  _164
REMARK   71  A    between atoms: _167  and  _169
REMARK   72  A    between atoms: _169  and  _170
REMARK   73  A    between atoms: _169  and  _172
REMARK   74  A    between atoms: _175  and  _177
REMARK   75  A    between atoms: _177  and  _178
REMARK   76  A    between atoms: _177  and  _180
REMARK   77  A    between atoms: _180  and  _181
REMARK   78  A    between atoms: _184  and  _186
REMARK   79  A    between atoms: _186  and  _187
REMARK   80  A    between atoms: _186  and  _189
REMARK   81  A    between atoms: _189  and  _190
REMARK   82  A    between atoms: _194  and  _195
REMARK   83  A    between atoms: _200  and  _202
REMARK   84  A    between atoms: _202  and  _203
REMARK   85  A    between atoms: _206  and  _208
REMARK   86  A    between atoms: _208  and  _209
REMARK   87  A    between atoms: _208  and  _211
REMARK   88  A    between atoms: _211  and  _212
REMARK   89  A    between atoms: _217  and  _219
REMARK   90  A    between atoms: _219  and  _220
REMARK   91  A    between atoms: _219  and  _222
REMARK   92  A    between atoms: _222  and  _223
REMARK   93  A    between atoms: _226  and  _228
REMARK   94  A    between atoms: _228  and  _229
REMARK   95  A    between atoms: _228  and  _231
REMARK   96  A    between atoms: _231  and  _232
REMARK   97  A    between atoms: _235  and  _237
REMARK   98  A    between atoms: _237  and  _238
REMARK   99  A    between atoms: _240  and  _242
REMARK  100  A    between atoms: _242  and  _243
REMARK  101  A    between atoms: _242  and  _245
REMARK  102  A    between atoms: _245  and  _246
REMARK  103  A    between atoms: _246  and  _247
REMARK  104  A    between atoms: _247  and  _248
REMARK  105  A    between atoms: _257  and  _259
REMARK  106  A    between atoms: _259  and  _260
REMARK  107  A    between atoms: _259  and  _262
REMARK  108  A    between atoms: _262  and  _263
REMARK  109  A    between atoms: _268  and  _270
REMARK  110  A    between atoms: _270  and  _271
REMARK  111  A    between atoms: _270  and  _273
REMARK  112  A    between atoms: _273  and  _274
REMARK  113  A    between atoms: _274  and  _275
REMARK  114  A    between atoms: _275  and  _276
REMARK  115  A    between atoms: _285  and  _287
REMARK  116  A    between atoms: _287  and  _288
REMARK  117  A    between atoms: _287  and  _290
REMARK  118  A    between atoms: _290  and  _291
REMARK  119  A    between atoms: _294  and  _296
REMARK  120  A    between atoms: _296  and  _297
REMARK  121  A    between atoms: _296  and  _299
REMARK  122  A    between atoms: _299  and  _300
REMARK  123  A    between atoms: _303  and  _305
REMARK  124  A    between atoms: _305  and  _306
REMARK  125  A    between atoms: _305  and  _308
REMARK  126  A    between atoms: _308  and  _309
REMARK  127  A    between atoms: _312  and  _314
REMARK  128  A    between atoms: _314  and  _315
REMARK  129  A    between atoms: _314  and  _317
REMARK  130  A    between atoms: _317  and  _318
REMARK  131  A    between atoms: _321  and  _323
REMARK  132  A    between atoms: _323  and  _324
REMARK  133  A    between atoms: _326  and  _328
REMARK  134  A    between atoms: _328  and  _329
REMARK  135  A    between atoms: _332  and  _334
REMARK  136  A    between atoms: _334  and  _335
REMARK  137  A    between atoms: _334  and  _337
REMARK  138  A    between atoms: _337  and  _338
REMARK  139  A    between atoms: _341  and  _343
REMARK  140  A    between atoms: _343  and  _344
REMARK  141  A    between atoms: _343  and  _346
REMARK  142  A    between atoms: _346  and  _347
REMARK  143  A    between atoms: _350  and  _352
REMARK  144  A    between atoms: _352  and  _353
REMARK  145  A    between atoms: _352  and  _355
REMARK  146  A    between atoms: _355  and  _356
REMARK  147  A    between atoms: _359  and  _361
REMARK  148  A    between atoms: _361  and  _362
REMARK  149  A    between atoms: _361  and  _364
REMARK  150  A    between atoms: _367  and  _369
REMARK  151  A    between atoms: _369  and  _370
REMARK  152  A    between atoms: _369  and  _372
REMARK  153  A    between atoms: _372  and  _373
REMARK  154  A    between atoms: _376  and  _378
REMARK  155  A    between atoms: _378  and  _379
REMARK  156  A    between atoms: _378  and  _381
REMARK  157  A    between atoms: _381  and  _382
REMARK  158  A    between atoms: _382  and  _383
REMARK  159  A    between atoms: _386  and  _388
REMARK  160  A    between atoms: _388  and  _389
REMARK  161  A    between atoms: _388  and  _391
REMARK  162  A    between atoms: _391  and  _392
REMARK  163  A    between atoms: _392  and  _393
REMARK  164  A    between atoms: _393  and  _394
REMARK  165  A    between atoms: _394  and  _395
REMARK  166  A    between atoms: _399  and  _401
REMARK  167  A    between atoms: _401  and  _402
REMARK  168  A    between atoms: _401  and  _404
REMARK  169  A    between atoms: _404  and  _405
REMARK  170  A    between atoms: _405  and  _406
REMARK  171  A    between atoms: _408  and  _410
REMARK  172  A    between atoms: _410  and  _411
REMARK  173  A    between atoms: _410  and  _413
REMARK  174  A    between atoms: _413  and  _414
REMARK  175  A    between atoms: _417  and  _419
REMARK  176  A    between atoms: _419  and  _420
REMARK  177  A    between atoms: _419  and  _422
REMARK  178  A    between atoms: _425  and  _427
REMARK  179  A    between atoms: _427  and  _428
REMARK  180  A    between atoms: _430  and  _432
REMARK  181  A    between atoms: _432  and  _433
REMARK  182  A    between atoms: _432  and  _435
REMARK  183  A    between atoms: _435  and  _436
REMARK  184  A    between atoms: _439  and  _441
REMARK  185  A    between atoms: _441  and  _442
REMARK  186  A    between atoms: _444  and  _446
REMARK  187  A    between atoms: _446  and  _447
REMARK  188  A    between atoms: _449  and  _451
REMARK  189  A    between atoms: _451  and  _452
REMARK  190  A    between atoms: _451  and  _454
REMARK  191  A    between atoms: _457  and  _459
REMARK  192  A    between atoms: _459  and  _460
REMARK  193  A    between atoms: _459  and  _462
REMARK  194  A    between atoms: _465  and  _467
REMARK  195  A    between atoms: _467  and  _468
REMARK  196  A    between atoms: _467  and  _470
REMARK  197  A    between atoms: _470  and  _471
REMARK  198  A    between atoms: _475  and  _476
REMARK  199  A    between atoms: _481  and  _483
REMARK  200  A    between atoms: _483  and  _484
REMARK  201  A    between atoms: _483  and  _486
REMARK  202  A    between atoms: _486  and  _487
REMARK  203  A    between atoms: _491  and  _492
REMARK  204  A    between atoms: _497  and  _499
REMARK  205  A    between atoms: _499  and  _500
REMARK  206  A    between atoms: _503  and  _505
REMARK  207  A    between atoms: _505  and  _506
REMARK  208  A    between atoms: _505  and  _508
REMARK  209  A    between atoms: _508  and  _509
REMARK  210  A    between atoms: _514  and  _516
REMARK  211  A    between atoms: _516  and  _517
REMARK  212  A    between atoms: _516  and  _519
REMARK  213  A    between atoms: _519  and  _520
REMARK  214  A    between atoms: _523  and  _525
REMARK  215  A    between atoms: _525  and  _526
REMARK  216  A    between atoms: _525  and  _528
REMARK  217  A    between atoms: _528  and  _529
REMARK  218  A    between atoms: _532  and  _534
REMARK  219  A    between atoms: _534  and  _535
REMARK  220  A    between atoms: _537  and  _539
REMARK  221  A    between atoms: _539  and  _540
REMARK  222  A    between atoms: _539  and  _542
REMARK  223  A    between atoms: _542  and  _543
REMARK  224  A    between atoms: _543  and  _544
REMARK  225  A    between atoms: _544  and  _545
REMARK  226  A    between atoms: _554  and  _556
REMARK  227  A    between atoms: _556  and  _557
REMARK  228  A    between atoms: _556  and  _559
REMARK  229  A    between atoms: _559  and  _560
REMARK                            x       y       z     vdW  Elec       q    Type
REMARK                         _______ _______ _______ _____ _____    ______ ____
ROOT
ATOM      1  O   HOH     1       5.324 -22.917  23.375  0.00  0.00    +0.000 OA
ENDROOT
TORSDOF 0
REMARK  Name = ../refined-set-2016/3ekp/3ekp_pocket.pdb
REMARK  229 active torsions:
REMARK  status: ('A' for Active; 'I' for Inactive)
REMARK    1  A    between atoms: _1  and  _3
REMARK    2  A    between atoms: _3  and  _4
REMARK    3  A    between atoms: _3  and  _6
REMARK    4  A    between atoms: _6  and  _7
REMARK    5  A    between atoms: _7  and  _8
REMARK    6  A    between atoms: _8  and  _9
REMARK    7  A    between atoms: _18  and  _20
REMARK    8  A    between atoms: _20  and  _21
REMARK    9  A    between atoms: _20  and  _23
REMARK   10  A    between atoms: _23  and  _24
REMARK   11  A    between atoms: _27  and  _29
REMARK   12  A    between atoms: _29  and  _30
REMARK   13  A    between atoms: _29  and  _32
REMARK   14  A    between atoms: _32  and  _33
REMARK   15  A    between atoms: _36  and  _38
REMARK   16  A    between atoms: _38  and  _39
REMARK   17  A    between atoms: _38  and  _41
REMARK   18  A    between atoms: _41  and  _42
REMARK   19  A    between atoms: _45  and  _47
REMARK   20  A    between atoms: _47  and  _48
REMARK   21  A    between atoms: _47  and  _50
REMARK   22  A    between atoms: _50  and  _51
REMARK   23  A    between atoms: _54  and  _56
REMARK   24  A    between atoms: _56  and  _57
REMARK   25  A    between atoms: _59  and  _61
REMARK   26  A    between atoms: _61  and  _62
REMARK   27  A    between atoms: _65  and  _67
REMARK   28  A    between atoms: _67  and  _68
REMARK   29  A    between atoms: _67  and  _70
REMARK   30  A    between atoms: _70  and  _71
REMARK   31  A    between atoms: _74  and  _76
REMARK   32  A    between atoms: _76  and  _77
REMARK   33  A    between atoms: _76  and  _79
REMARK   34  A    between atoms: _79  and  _80
REMARK   35  A    between atoms: _83  and  _85
REMARK   36  A    between atoms: _85  and  _86
REMARK   37  A    between atoms: _85  and  _88
REMARK   38  A    between atoms: _88  and  _89
REMARK   39  A    between atoms: _92  and  _94
REMARK   40  A    between atoms: _94  and  _95
REMARK   41  A    between atoms: _94  and  _97
REMARK   42  A    between atoms: _100  and  _102
REMARK   43  A    between atoms: _102  and  _103
REMARK   44  A    between atoms: _102  and  _105
REMARK   45  A    between atoms: _105  and  _106
REMARK   46  A    between atoms: _109  and  _111
REMARK   47  A    between atoms: _111  and  _112
REMARK   48  A    between atoms: _111  and  _114
REMARK   49  A    between atoms: _114  and  _115
REMARK   50  A    between atoms: _115  and  _116
REMARK   51  A    between atoms: _118  and  _120
REMARK   52  A    between atoms: _120  and  _121
REMARK   53  A    between atoms: _120  and  _123
REMARK   54  A    between atoms: _123  and  _124
REMARK   55  A    between atoms: _127  and  _129
REMARK   56  A    between atoms: _129  and  _130
REMARK   57  A    between atoms: _129  and  _132
REMARK   58  A    between atoms: _135  and  _137
REMARK   59  A    between atoms: _137  and  _138
REMARK   60  A    between atoms: _140  and  _142
REMARK   61  A    between atoms: _142  and  _143
REMARK   62  A    between atoms: _142  and  _145
REMARK   63  A    between atoms: _145  and  _146
REMARK   64  A    between atoms: _149  and  _151
REMARK   65  A    between atoms: _151  and  _152
REMARK   66  A    between atoms: _154  and  _156
REMARK   67  A    between atoms: _156  and  _157
REMARK   68  A    between atoms: _159  and  _161
REMARK   69  A    between atoms: _161  and  _162
REMARK   70  A    between atoms: _161  and  _164
REMARK   71  A    between atoms: _167  and  _169
REMARK   72  A    between atoms: _169  and  _170
REMARK   73  A    between atoms: _169  and  _172
REMARK   74  A    between atoms: _175  and  _177
REMARK   75  A    between atoms: _177  and  _178
REMARK   76  A    between atoms: _177  and  _180
REMARK   77  A    between atoms: _180  and  _181
REMARK   78  A    between atoms: _184  and  _186
REMARK   79  A    between atoms: _186  and  _187
REMARK   80  A    between atoms: _186  and  _189
REMARK   81  A    between atoms: _189  and  _190
REMARK   82  A    between atoms: _194  and  _195
REMARK   83  A    between atoms: _200  and  _202
REMARK   84  A    between atoms: _202  and  _203
REMARK   85  A    between atoms: _206  and  _208
REMARK   86  A    between atoms: _208  and  _209
REMARK   87  A    between atoms: _208  and  _211
REMARK   88  A    between atoms: _211  and  _212
REMARK   89  A    between atoms: _217  and  _219
REMARK   90  A    between atoms: _219  and  _220
REMARK   91  A    between atoms: _219  and  _222
REMARK   92  A    between atoms: _222  and  _223
REMARK   93  A    between atoms: _226  and  _228
REMARK   94  A    between atoms: _228  and  _229
REMARK   95  A    between atoms: _228  and  _231
REMARK   96  A    between atoms: _231  and  _232
REMARK   97  A    between atoms: _235  and  _237
REMARK   98  A    between atoms: _237  and  _238
REMARK   99  A    between atoms: _240  and  _242
REMARK  100  A    between atoms: _242  and  _243
REMARK  101  A    between atoms: _242  and  _245
REMARK  102  A    between atoms: _245  and  _246
REMARK  103  A    between atoms: _246  and  _247
REMARK  104  A    between atoms: _247  and  _248
REMARK  105  A    between atoms: _257  and  _259
REMARK  106  A    between atoms: _259  and  _260
REMARK  107  A    between atoms: _259  and  _262
REMARK  108  A    between atoms: _262  and  _263
REMARK  109  A    between atoms: _268  and  _270
REMARK  110  A    between atoms: _270  and  _271
REMARK  111  A    between atoms: _270  and  _273
REMARK  112  A    between atoms: _273  and  _274
REMARK  113  A    between atoms: _274  and  _275
REMARK  114  A    between atoms: _275  and  _276
REMARK  115  A    between atoms: _285  and  _287
REMARK  116  A    between atoms: _287  and  _288
REMARK  117  A    between atoms: _287  and  _290
REMARK  118  A    between atoms: _290  and  _291
REMARK  119  A    between atoms: _294  and  _296
REMARK  120  A    between atoms: _296  and  _297
REMARK  121  A    between atoms: _296  and  _299
REMARK  122  A    between atoms: _299  and  _300
REMARK  123  A    between atoms: _303  and  _305
REMARK  124  A    between atoms: _305  and  _306
REMARK  125  A    between atoms: _305  and  _308
REMARK  126  A    between atoms: _308  and  _309
REMARK  127  A    between atoms: _312  and  _314
REMARK  128  A    between atoms: _314  and  _315
REMARK  129  A    between atoms: _314  and  _317
REMARK  130  A    between atoms: _317  and  _318
REMARK  131  A    between atoms: _321  and  _323
REMARK  132  A    between atoms: _323  and  _324
REMARK  133  A    between atoms: _326  and  _328
REMARK  134  A    between atoms: _328  and  _329
REMARK  135  A    between atoms: _332  and  _334
REMARK  136  A    between atoms: _334  and  _335
REMARK  137  A    between atoms: _334  and  _337
REMARK  138  A    between atoms: _337  and  _338
REMARK  139  A    between atoms: _341  and  _343
REMARK  140  A    between atoms: _343  and  _344
REMARK  141  A    between atoms: _343  and  _346
REMARK  142  A    between atoms: _346  and  _347
REMARK  143  A    between atoms: _350  and  _352
REMARK  144  A    between atoms: _352  and  _353
REMARK  145  A    between atoms: _352  and  _355
REMARK  146  A    between atoms: _355  and  _356
REMARK  147  A    between atoms: _359  and  _361
REMARK  148  A    between atoms: _361  and  _362
REMARK  149  A    between atoms: _361  and  _364
REMARK  150  A    between atoms: _367  and  _369
REMARK  151  A    between atoms: _369  and  _370
REMARK  152  A    between atoms: _369  and  _372
REMARK  153  A    between atoms: _372  and  _373
REMARK  154  A    between atoms: _376  and  _378
REMARK  155  A    between atoms: _378  and  _379
REMARK  156  A    between atoms: _378  and  _381
REMARK  157  A    between atoms: _381  and  _382
REMARK  158  A    between atoms: _382  and  _383
REMARK  159  A    between atoms: _386  and  _388
REMARK  160  A    between atoms: _388  and  _389
REMARK  161  A    between atoms: _388  and  _391
REMARK  162  A    between atoms: _391  and  _392
REMARK  163  A    between atoms: _392  and  _393
REMARK  164  A    between atoms: _393  and  _394
REMARK  165  A    between atoms: _394  and  _395
REMARK  166  A    between atoms: _399  and  _401
REMARK  167  A    between atoms: _401  and  _402
REMARK  168  A    between atoms: _401  and  _404
REMARK  169  A    between atoms: _404  and  _405
REMARK  170  A    between atoms: _405  and  _406
REMARK  171  A    between atoms: _408  and  _410
REMARK  172  A    between atoms: _410  and  _411
REMARK  173  A    between atoms: _410  and  _413
REMARK  174  A    between atoms: _413  and  _414
REMARK  175  A    between atoms: _417  and  _419
REMARK  176  A    between atoms: _419  and  _420
REMARK  177  A    between atoms: _419  and  _422
REMARK  178  A    between atoms: _425  and  _427
REMARK  179  A    between atoms: _427  and  _428
REMARK  180  A    between atoms: _430  and  _432
REMARK  181  A    between atoms: _432  and  _433
REMARK  182  A    between atoms: _432  and  _435
REMARK  183  A    between atoms: _435  and  _436
REMARK  184  A    between atoms: _439  and  _441
REMARK  185  A    between atoms: _441  and  _442
REMARK  186  A    between atoms: _444  and  _446
REMARK  187  A    between atoms: _446  and  _447
REMARK  188  A    between atoms: _449  and  _451
REMARK  189  A    between atoms: _451  and  _452
REMARK  190  A    between atoms: _451  and  _454
REMARK  191  A    between atoms: _457  and  _459
REMARK  192  A    between atoms: _459  and  _460
REMARK  193  A    between atoms: _459  and  _462
REMARK  194  A    between atoms: _465  and  _467
REMARK  195  A    between atoms: _467  and  _468
REMARK  196  A    between atoms: _467  and  _470
REMARK  197  A    between atoms: _470  and  _471
REMARK  198  A    between atoms: _475  and  _476
REMARK  199  A    between atoms: _481  and  _483
REMARK  200  A    between atoms: _483  and  _484
REMARK  201  A    between atoms: _483  and  _486
REMARK  202  A    between atoms: _486  and  _487
REMARK  203  A    between atoms: _491  and  _492
REMARK  204  A    between atoms: _497  and  _499
REMARK  205  A    between atoms: _499  and  _500
REMARK  206  A    between atoms: _503  and  _505
REMARK  207  A    between atoms: _505  and  _506
REMARK  208  A    between atoms: _505  and  _508
REMARK  209  A    between atoms: _508  and  _509
REMARK  210  A    between atoms: _514  and  _516
REMARK  211  A    between atoms: _516  and  _517
REMARK  212  A    between atoms: _516  and  _519
REMARK  213  A    between atoms: _519  and  _520
REMARK  214  A    between atoms: _523  and  _525
REMARK  215  A    between atoms: _525  and  _526
REMARK  216  A    between atoms: _525  and  _528
REMARK  217  A    between atoms: _528  and  _529
REMARK  218  A    between atoms: _532  and  _534
REMARK  219  A    between atoms: _534  and  _535
REMARK  220  A    between atoms: _537  and  _539
REMARK  221  A    between atoms: _539  and  _540
REMARK  222  A    between atoms: _539  and  _542
REMARK  223  A    between atoms: _542  and  _543
REMARK  224  A    between atoms: _543  and  _544
REMARK  225  A    between atoms: _544  and  _545
REMARK  226  A    between atoms: _554  and  _556
REMARK  227  A    between atoms: _556  and  _557
REMARK  228  A    between atoms: _556  and  _559
REMARK  229  A    between atoms: _559  and  _560
REMARK                            x       y       z     vdW  Elec       q    Type
REMARK                         _______ _______ _______ _____ _____    ______ ____
ROOT
ATOM      1  O   HOH     1       2.601 -17.300  36.201  0.00  0.00    +0.000 OA
ENDROOT
TORSDOF 0
REMARK  Name = ../refined-set-2016/3ekp/3ekp_pocket.pdb
REMARK  229 active torsions:
REMARK  status: ('A' for Active; 'I' for Inactive)
REMARK    1  A    between atoms: _1  and  _3
REMARK    2  A    between atoms: _3  and  _4
REMARK    3  A    between atoms: _3  and  _6
REMARK    4  A    between atoms: _6  and  _7
REMARK    5  A    between atoms: _7  and  _8
REMARK    6  A    between atoms: _8  and  _9
REMARK    7  A    between atoms: _18  and  _20
REMARK    8  A    between atoms: _20  and  _21
REMARK    9  A    between atoms: _20  and  _23
REMARK   10  A    between atoms: _23  and  _24
REMARK   11  A    between atoms: _27  and  _29
REMARK   12  A    between atoms: _29  and  _30
REMARK   13  A    between atoms: _29  and  _32
REMARK   14  A    between atoms: _32  and  _33
REMARK   15  A    between atoms: _36  and  _38
REMARK   16  A    between atoms: _38  and  _39
REMARK   17  A    between atoms: _38  and  _41
REMARK   18  A    between atoms: _41  and  _42
REMARK   19  A    between atoms: _45  and  _47
REMARK   20  A    between atoms: _47  and  _48
REMARK   21  A    between atoms: _47  and  _50
REMARK   22  A    between atoms: _50  and  _51
REMARK   23  A    between atoms: _54  and  _56
REMARK   24  A    between atoms: _56  and  _57
REMARK   25  A    between atoms: _59  and  _61
REMARK   26  A    between atoms: _61  and  _62
REMARK   27  A    between atoms: _65  and  _67
REMARK   28  A    between atoms: _67  and  _68
REMARK   29  A    between atoms: _67  and  _70
REMARK   30  A    between atoms: _70  and  _71
REMARK   31  A    between atoms: _74  and  _76
REMARK   32  A    between atoms: _76  and  _77
REMARK   33  A    between atoms: _76  and  _79
REMARK   34  A    between atoms: _79  and  _80
REMARK   35  A    between atoms: _83  and  _85
REMARK   36  A    between atoms: _85  and  _86
REMARK   37  A    between atoms: _85  and  _88
REMARK   38  A    between atoms: _88  and  _89
REMARK   39  A    between atoms: _92  and  _94
REMARK   40  A    between atoms: _94  and  _95
REMARK   41  A    between atoms: _94  and  _97
REMARK   42  A    between atoms: _100  and  _102
REMARK   43  A    between atoms: _102  and  _103
REMARK   44  A    between atoms: _102  and  _105
REMARK   45  A    between atoms: _105  and  _106
REMARK   46  A    between atoms: _109  and  _111
REMARK   47  A    between atoms: _111  and  _112
REMARK   48  A    between atoms: _111  and  _114
REMARK   49  A    between atoms: _114  and  _115
REMARK   50  A    between atoms: _115  and  _116
REMARK   51  A    between atoms: _118  and  _120
REMARK   52  A    between atoms: _120  and  _121
REMARK   53  A    between atoms: _120  and  _123
REMARK   54  A    between atoms: _123  and  _124
REMARK   55  A    between atoms: _127  and  _129
REMARK   56  A    between atoms: _129  and  _130
REMARK   57  A    between atoms: _129  and  _132
REMARK   58  A    between atoms: _135  and  _137
REMARK   59  A    between atoms: _137  and  _138
REMARK   60  A    between atoms: _140  and  _142
REMARK   61  A    between atoms: _142  and  _143
REMARK   62  A    between atoms: _142  and  _145
REMARK   63  A    between atoms: _145  and  _146
REMARK   64  A    between atoms: _149  and  _151
REMARK   65  A    between atoms: _151  and  _152
REMARK   66  A    between atoms: _154  and  _156
REMARK   67  A    between atoms: _156  and  _157
REMARK   68  A    between atoms: _159  and  _161
REMARK   69  A    between atoms: _161  and  _162
REMARK   70  A    between atoms: _161  and  _164
REMARK   71  A    between atoms: _167  and  _169
REMARK   72  A    between atoms: _169  and  _170
REMARK   73  A    between atoms: _169  and  _172
REMARK   74  A    between atoms: _175  and  _177
REMARK   75  A    between atoms: _177  and  _178
REMARK   76  A    between atoms: _177  and  _180
REMARK   77  A    between atoms: _180  and  _181
REMARK   78  A    between atoms: _184  and  _186
REMARK   79  A    between atoms: _186  and  _187
REMARK   80  A    between atoms: _186  and  _189
REMARK   81  A    between atoms: _189  and  _190
REMARK   82  A    between atoms: _194  and  _195
REMARK   83  A    between atoms: _200  and  _202
REMARK   84  A    between atoms: _202  and  _203
REMARK   85  A    between atoms: _206  and  _208
REMARK   86  A    between atoms: _208  and  _209
REMARK   87  A    between atoms: _208  and  _211
REMARK   88  A    between atoms: _211  and  _212
REMARK   89  A    between atoms: _217  and  _219
REMARK   90  A    between atoms: _219  and  _220
REMARK   91  A    between atoms: _219  and  _222
REMARK   92  A    between atoms: _222  and  _223
REMARK   93  A    between atoms: _226  and  _228
REMARK   94  A    between atoms: _228  and  _229
REMARK   95  A    between atoms: _228  and  _231
REMARK   96  A    between atoms: _231  and  _232
REMARK   97  A    between atoms: _235  and  _237
REMARK   98  A    between atoms: _237  and  _238
REMARK   99  A    between atoms: _240  and  _242
REMARK  100  A    between atoms: _242  and  _243
REMARK  101  A    between atoms: _242  and  _245
REMARK  102  A    between atoms: _245  and  _246
REMARK  103  A    between atoms: _246  and  _247
REMARK  104  A    between atoms: _247  and  _248
REMARK  105  A    between atoms: _257  and  _259
REMARK  106  A    between atoms: _259  and  _260
REMARK  107  A    between atoms: _259  and  _262
REMARK  108  A    between atoms: _262  and  _263
REMARK  109  A    between atoms: _268  and  _270
REMARK  110  A    between atoms: _270  and  _271
REMARK  111  A    between atoms: _270  and  _273
REMARK  112  A    between atoms: _273  and  _274
REMARK  113  A    between atoms: _274  and  _275
REMARK  114  A    between atoms: _275  and  _276
REMARK  115  A    between atoms: _285  and  _287
REMARK  116  A    between atoms: _287  and  _288
REMARK  117  A    between atoms: _287  and  _290
REMARK  118  A    between atoms: _290  and  _291
REMARK  119  A    between atoms: _294  and  _296
REMARK  120  A    between atoms: _296  and  _297
REMARK  121  A    between atoms: _296  and  _299
REMARK  122  A    between atoms: _299  and  _300
REMARK  123  A    between atoms: _303  and  _305
REMARK  124  A    between atoms: _305  and  _306
REMARK  125  A    between atoms: _305  and  _308
REMARK  126  A    between atoms: _308  and  _309
REMARK  127  A    between atoms: _312  and  _314
REMARK  128  A    between atoms: _314  and  _315
REMARK  129  A    between atoms: _314  and  _317
REMARK  130  A    between atoms: _317  and  _318
REMARK  131  A    between atoms: _321  and  _323
REMARK  132  A    between atoms: _323  and  _324
REMARK  133  A    between atoms: _326  and  _328
REMARK  134  A    between atoms: _328  and  _329
REMARK  135  A    between atoms: _332  and  _334
REMARK  136  A    between atoms: _334  and  _335
REMARK  137  A    between atoms: _334  and  _337
REMARK  138  A    between atoms: _337  and  _338
REMARK  139  A    between atoms: _341  and  _343
REMARK  140  A    between atoms: _343  and  _344
REMARK  141  A    between atoms: _343  and  _346
REMARK  142  A    between atoms: _346  and  _347
REMARK  143  A    between atoms: _350  and  _352
REMARK  144  A    between atoms: _352  and  _353
REMARK  145  A    between atoms: _352  and  _355
REMARK  146  A    between atoms: _355  and  _356
REMARK  147  A    between atoms: _359  and  _361
REMARK  148  A    between atoms: _361  and  _362
REMARK  149  A    between atoms: _361  and  _364
REMARK  150  A    between atoms: _367  and  _369
REMARK  151  A    between atoms: _369  and  _370
REMARK  152  A    between atoms: _369  and  _372
REMARK  153  A    between atoms: _372  and  _373
REMARK  154  A    between atoms: _376  and  _378
REMARK  155  A    between atoms: _378  and  _379
REMARK  156  A    between atoms: _378  and  _381
REMARK  157  A    between atoms: _381  and  _382
REMARK  158  A    between atoms: _382  and  _383
REMARK  159  A    between atoms: _386  and  _388
REMARK  160  A    between atoms: _388  and  _389
REMARK  161  A    between atoms: _388  and  _391
REMARK  162  A    between atoms: _391  and  _392
REMARK  163  A    between atoms: _392  and  _393
REMARK  164  A    between atoms: _393  and  _394
REMARK  165  A    between atoms: _394  and  _395
REMARK  166  A    between atoms: _399  and  _401
REMARK  167  A    between atoms: _401  and  _402
REMARK  168  A    between atoms: _401  and  _404
REMARK  169  A    between atoms: _404  and  _405
REMARK  170  A    between atoms: _405  and  _406
REMARK  171  A    between atoms: _408  and  _410
REMARK  172  A    between atoms: _410  and  _411
REMARK  173  A    between atoms: _410  and  _413
REMARK  174  A    between atoms: _413  and  _414
REMARK  175  A    between atoms: _417  and  _419
REMARK  176  A    between atoms: _419  and  _420
REMARK  177  A    between atoms: _419  and  _422
REMARK  178  A    between atoms: _425  and  _427
REMARK  179  A    between atoms: _427  and  _428
REMARK  180  A    between atoms: _430  and  _432
REMARK  181  A    between atoms: _432  and  _433
REMARK  182  A    between atoms: _432  and  _435
REMARK  183  A    between atoms: _435  and  _436
REMARK  184  A    between atoms: _439  and  _441
REMARK  185  A    between atoms: _441  and  _442
REMARK  186  A    between atoms: _444  and  _446
REMARK  187  A    between atoms: _446  and  _447
REMARK  188  A    between atoms: _449  and  _451
REMARK  189  A    between atoms: _451  and  _452
REMARK  190  A    between atoms: _451  and  _454
REMARK  191  A    between atoms: _457  and  _459
REMARK  192  A    between atoms: _459  and  _460
REMARK  193  A    between atoms: _459  and  _462
REMARK  194  A    between atoms: _465  and  _467
REMARK  195  A    between atoms: _467  and  _468
REMARK  196  A    between atoms: _467  and  _470
REMARK  197  A    between atoms: _470  and  _471
REMARK  198  A    between atoms: _475  and  _476
REMARK  199  A    between atoms: _481  and  _483
REMARK  200  A    between atoms: _483  and  _484
REMARK  201  A    between atoms: _483  and  _486
REMARK  202  A    between atoms: _486  and  _487
REMARK  203  A    between atoms: _491  and  _492
REMARK  204  A    between atoms: _497  and  _499
REMARK  205  A    between atoms: _499  and  _500
REMARK  206  A    between atoms: _503  and  _505
REMARK  207  A    between atoms: _505  and  _506
REMARK  208  A    between atoms: _505  and  _508
REMARK  209  A    between atoms: _508  and  _509
REMARK  210  A    between atoms: _514  and  _516
REMARK  211  A    between atoms: _516  and  _517
REMARK  212  A    between atoms: _516  and  _519
REMARK  213  A    between atoms: _519  and  _520
REMARK  214  A    between atoms: _523  and  _525
REMARK  215  A    between atoms: _525  and  _526
REMARK  216  A    between atoms: _525  and  _528
REMARK  217  A    between atoms: _528  and  _529
REMARK  218  A    between atoms: _532  and  _534
REMARK  219  A    between atoms: _534  and  _535
REMARK  220  A    between atoms: _537  and  _539
REMARK  221  A    between atoms: _539  and  _540
REMARK  222  A    between atoms: _539  and  _542
REMARK  223  A    between atoms: _542  and  _543
REMARK  224  A    between atoms: _543  and  _544
REMARK  225  A    between atoms: _544  and  _545
REMARK  226  A    between atoms: _554  and  _556
REMARK  227  A    between atoms: _556  and  _557
REMARK  228  A    between atoms: _556  and  _559
REMARK  229  A    between atoms: _559  and  _560
REMARK                            x       y       z     vdW  Elec       q    Type
REMARK                         _______ _______ _______ _____ _____    ______ ____
ROOT
ATOM      1  O   HOH     1       4.692 -26.132  27.101  0.00  0.00    +0.000 OA
ENDROOT
TORSDOF 0
REMARK  Name = ../refined-set-2016/3ekp/3ekp_pocket.pdb
REMARK  229 active torsions:
REMARK  status: ('A' for Active; 'I' for Inactive)
REMARK    1  A    between atoms: _1  and  _3
REMARK    2  A    between atoms: _3  and  _4
REMARK    3  A    between atoms: _3  and  _6
REMARK    4  A    between atoms: _6  and  _7
REMARK    5  A    between atoms: _7  and  _8
REMARK    6  A    between atoms: _8  and  _9
REMARK    7  A    between atoms: _18  and  _20
REMARK    8  A    between atoms: _20  and  _21
REMARK    9  A    between atoms: _20  and  _23
REMARK   10  A    between atoms: _23  and  _24
REMARK   11  A    between atoms: _27  and  _29
REMARK   12  A    between atoms: _29  and  _30
REMARK   13  A    between atoms: _29  and  _32
REMARK   14  A    between atoms: _32  and  _33
REMARK   15  A    between atoms: _36  and  _38
REMARK   16  A    between atoms: _38  and  _39
REMARK   17  A    between atoms: _38  and  _41
REMARK   18  A    between atoms: _41  and  _42
REMARK   19  A    between atoms: _45  and  _47
REMARK   20  A    between atoms: _47  and  _48
REMARK   21  A    between atoms: _47  and  _50
REMARK   22  A    between atoms: _50  and  _51
REMARK   23  A    between atoms: _54  and  _56
REMARK   24  A    between atoms: _56  and  _57
REMARK   25  A    between atoms: _59  and  _61
REMARK   26  A    between atoms: _61  and  _62
REMARK   27  A    between atoms: _65  and  _67
REMARK   28  A    between atoms: _67  and  _68
REMARK   29  A    between atoms: _67  and  _70
REMARK   30  A    between atoms: _70  and  _71
REMARK   31  A    between atoms: _74  and  _76
REMARK   32  A    between atoms: _76  and  _77
REMARK   33  A    between atoms: _76  and  _79
REMARK   34  A    between atoms: _79  and  _80
REMARK   35  A    between atoms: _83  and  _85
REMARK   36  A    between atoms: _85  and  _86
REMARK   37  A    between atoms: _85  and  _88
REMARK   38  A    between atoms: _88  and  _89
REMARK   39  A    between atoms: _92  and  _94
REMARK   40  A    between atoms: _94  and  _95
REMARK   41  A    between atoms: _94  and  _97
REMARK   42  A    between atoms: _100  and  _102
REMARK   43  A    between atoms: _102  and  _103
REMARK   44  A    between atoms: _102  and  _105
REMARK   45  A    between atoms: _105  and  _106
REMARK   46  A    between atoms: _109  and  _111
REMARK   47  A    between atoms: _111  and  _112
REMARK   48  A    between atoms: _111  and  _114
REMARK   49  A    between atoms: _114  and  _115
REMARK   50  A    between atoms: _115  and  _116
REMARK   51  A    between atoms: _118  and  _120
REMARK   52  A    between atoms: _120  and  _121
REMARK   53  A    between atoms: _120  and  _123
REMARK   54  A    between atoms: _123  and  _124
REMARK   55  A    between atoms: _127  and  _129
REMARK   56  A    between atoms: _129  and  _130
REMARK   57  A    between atoms: _129  and  _132
REMARK   58  A    between atoms: _135  and  _137
REMARK   59  A    between atoms: _137  and  _138
REMARK   60  A    between atoms: _140  and  _142
REMARK   61  A    between atoms: _142  and  _143
REMARK   62  A    between atoms: _142  and  _145
REMARK   63  A    between atoms: _145  and  _146
REMARK   64  A    between atoms: _149  and  _151
REMARK   65  A    between atoms: _151  and  _152
REMARK   66  A    between atoms: _154  and  _156
REMARK   67  A    between atoms: _156  and  _157
REMARK   68  A    between atoms: _159  and  _161
REMARK   69  A    between atoms: _161  and  _162
REMARK   70  A    between atoms: _161  and  _164
REMARK   71  A    between atoms: _167  and  _169
REMARK   72  A    between atoms: _169  and  _170
REMARK   73  A    between atoms: _169  and  _172
REMARK   74  A    between atoms: _175  and  _177
REMARK   75  A    between atoms: _177  and  _178
REMARK   76  A    between atoms: _177  and  _180
REMARK   77  A    between atoms: _180  and  _181
REMARK   78  A    between atoms: _184  and  _186
REMARK   79  A    between atoms: _186  and  _187
REMARK   80  A    between atoms: _186  and  _189
REMARK   81  A    between atoms: _189  and  _190
REMARK   82  A    between atoms: _194  and  _195
REMARK   83  A    between atoms: _200  and  _202
REMARK   84  A    between atoms: _202  and  _203
REMARK   85  A    between atoms: _206  and  _208
REMARK   86  A    between atoms: _208  and  _209
REMARK   87  A    between atoms: _208  and  _211
REMARK   88  A    between atoms: _211  and  _212
REMARK   89  A    between atoms: _217  and  _219
REMARK   90  A    between atoms: _219  and  _220
REMARK   91  A    between atoms: _219  and  _222
REMARK   92  A    between atoms: _222  and  _223
REMARK   93  A    between atoms: _226  and  _228
REMARK   94  A    between atoms: _228  and  _229
REMARK   95  A    between atoms: _228  and  _231
REMARK   96  A    between atoms: _231  and  _232
REMARK   97  A    between atoms: _235  and  _237
REMARK   98  A    between atoms: _237  and  _238
REMARK   99  A    between atoms: _240  and  _242
REMARK  100  A    between atoms: _242  and  _243
REMARK  101  A    between atoms: _242  and  _245
REMARK  102  A    between atoms: _245  and  _246
REMARK  103  A    between atoms: _246  and  _247
REMARK  104  A    between atoms: _247  and  _248
REMARK  105  A    between atoms: _257  and  _259
REMARK  106  A    between atoms: _259  and  _260
REMARK  107  A    between atoms: _259  and  _262
REMARK  108  A    between atoms: _262  and  _263
REMARK  109  A    between atoms: _268  and  _270
REMARK  110  A    between atoms: _270  and  _271
REMARK  111  A    between atoms: _270  and  _273
REMARK  112  A    between atoms: _273  and  _274
REMARK  113  A    between atoms: _274  and  _275
REMARK  114  A    between atoms: _275  and  _276
REMARK  115  A    between atoms: _285  and  _287
REMARK  116  A    between atoms: _287  and  _288
REMARK  117  A    between atoms: _287  and  _290
REMARK  118  A    between atoms: _290  and  _291
REMARK  119  A    between atoms: _294  and  _296
REMARK  120  A    between atoms: _296  and  _297
REMARK  121  A    between atoms: _296  and  _299
REMARK  122  A    between atoms: _299  and  _300
REMARK  123  A    between atoms: _303  and  _305
REMARK  124  A    between atoms: _305  and  _306
REMARK  125  A    between atoms: _305  and  _308
REMARK  126  A    between atoms: _308  and  _309
REMARK  127  A    between atoms: _312  and  _314
REMARK  128  A    between atoms: _314  and  _315
REMARK  129  A    between atoms: _314  and  _317
REMARK  130  A    between atoms: _317  and  _318
REMARK  131  A    between atoms: _321  and  _323
REMARK  132  A    between atoms: _323  and  _324
REMARK  133  A    between atoms: _326  and  _328
REMARK  134  A    between atoms: _328  and  _329
REMARK  135  A    between atoms: _332  and  _334
REMARK  136  A    between atoms: _334  and  _335
REMARK  137  A    between atoms: _334  and  _337
REMARK  138  A    between atoms: _337  and  _338
REMARK  139  A    between atoms: _341  and  _343
REMARK  140  A    between atoms: _343  and  _344
REMARK  141  A    between atoms: _343  and  _346
REMARK  142  A    between atoms: _346  and  _347
REMARK  143  A    between atoms: _350  and  _352
REMARK  144  A    between atoms: _352  and  _353
REMARK  145  A    between atoms: _352  and  _355
REMARK  146  A    between atoms: _355  and  _356
REMARK  147  A    between atoms: _359  and  _361
REMARK  148  A    between atoms: _361  and  _362
REMARK  149  A    between atoms: _361  and  _364
REMARK  150  A    between atoms: _367  and  _369
REMARK  151  A    between atoms: _369  and  _370
REMARK  152  A    between atoms: _369  and  _372
REMARK  153  A    between atoms: _372  and  _373
REMARK  154  A    between atoms: _376  and  _378
REMARK  155  A    between atoms: _378  and  _379
REMARK  156  A    between atoms: _378  and  _381
REMARK  157  A    between atoms: _381  and  _382
REMARK  158  A    between atoms: _382  and  _383
REMARK  159  A    between atoms: _386  and  _388
REMARK  160  A    between atoms: _388  and  _389
REMARK  161  A    between atoms: _388  and  _391
REMARK  162  A    between atoms: _391  and  _392
REMARK  163  A    between atoms: _392  and  _393
REMARK  164  A    between atoms: _393  and  _394
REMARK  165  A    between atoms: _394  and  _395
REMARK  166  A    between atoms: _399  and  _401
REMARK  167  A    between atoms: _401  and  _402
REMARK  168  A    between atoms: _401  and  _404
REMARK  169  A    between atoms: _404  and  _405
REMARK  170  A    between atoms: _405  and  _406
REMARK  171  A    between atoms: _408  and  _410
REMARK  172  A    between atoms: _410  and  _411
REMARK  173  A    between atoms: _410  and  _413
REMARK  174  A    between atoms: _413  and  _414
REMARK  175  A    between atoms: _417  and  _419
REMARK  176  A    between atoms: _419  and  _420
REMARK  177  A    between atoms: _419  and  _422
REMARK  178  A    between atoms: _425  and  _427
REMARK  179  A    between atoms: _427  and  _428
REMARK  180  A    between atoms: _430  and  _432
REMARK  181  A    between atoms: _432  and  _433
REMARK  182  A    between atoms: _432  and  _435
REMARK  183  A    between atoms: _435  and  _436
REMARK  184  A    between atoms: _439  and  _441
REMARK  185  A    between atoms: _441  and  _442
REMARK  186  A    between atoms: _444  and  _446
REMARK  187  A    between atoms: _446  and  _447
REMARK  188  A    between atoms: _449  and  _451
REMARK  189  A    between atoms: _451  and  _452
REMARK  190  A    between atoms: _451  and  _454
REMARK  191  A    between atoms: _457  and  _459
REMARK  192  A    between atoms: _459  and  _460
REMARK  193  A    between atoms: _459  and  _462
REMARK  194  A    between atoms: _465  and  _467
REMARK  195  A    between atoms: _467  and  _468
REMARK  196  A    between atoms: _467  and  _470
REMARK  197  A    between atoms: _470  and  _471
REMARK  198  A    between atoms: _475  and  _476
REMARK  199  A    between atoms: _481  and  _483
REMARK  200  A    between atoms: _483  and  _484
REMARK  201  A    between atoms: _483  and  _486
REMARK  202  A    between atoms: _486  and  _487
REMARK  203  A    between atoms: _491  and  _492
REMARK  204  A    between atoms: _497  and  _499
REMARK  205  A    between atoms: _499  and  _500
REMARK  206  A    between atoms: _503  and  _505
REMARK  207  A    between atoms: _505  and  _506
REMARK  208  A    between atoms: _505  and  _508
REMARK  209  A    between atoms: _508  and  _509
REMARK  210  A    between atoms: _514  and  _516
REMARK  211  A    between atoms: _516  and  _517
REMARK  212  A    between atoms: _516  and  _519
REMARK  213  A    between atoms: _519  and  _520
REMARK  214  A    between atoms: _523  and  _525
REMARK  215  A    between atoms: _525  and  _526
REMARK  216  A    between atoms: _525  and  _528
REMARK  217  A    between atoms: _528  and  _529
REMARK  218  A    between atoms: _532  and  _534
REMARK  219  A    between atoms: _534  and  _535
REMARK  220  A    between atoms: _537  and  _539
REMARK  221  A    between atoms: _539  and  _540
REMARK  222  A    between atoms: _539  and  _542
REMARK  223  A    between atoms: _542  and  _543
REMARK  224  A    between atoms: _543  and  _544
REMARK  225  A    between atoms: _544  and  _545
REMARK  226  A    between atoms: _554  and  _556
REMARK  227  A    between atoms: _556  and  _557
REMARK  228  A    between atoms: _556  and  _559
REMARK  229  A    between atoms: _559  and  _560
REMARK                            x       y       z     vdW  Elec       q    Type
REMARK                         _______ _______ _______ _____ _____    ______ ____
ROOT
ATOM      1  O   HOH     1      19.372 -15.895  37.007  0.00  0.00    +0.000 OA
ENDROOT
TORSDOF 0
REMARK  Name = ../refined-set-2016/3ekp/3ekp_pocket.pdb
REMARK  229 active torsions:
REMARK  status: ('A' for Active; 'I' for Inactive)
REMARK    1  A    between atoms: _1  and  _3
REMARK    2  A    between atoms: _3  and  _4
REMARK    3  A    between atoms: _3  and  _6
REMARK    4  A    between atoms: _6  and  _7
REMARK    5  A    between atoms: _7  and  _8
REMARK    6  A    between atoms: _8  and  _9
REMARK    7  A    between atoms: _18  and  _20
REMARK    8  A    between atoms: _20  and  _21
REMARK    9  A    between atoms: _20  and  _23
REMARK   10  A    between atoms: _23  and  _24
REMARK   11  A    between atoms: _27  and  _29
REMARK   12  A    between atoms: _29  and  _30
REMARK   13  A    between atoms: _29  and  _32
REMARK   14  A    between atoms: _32  and  _33
REMARK   15  A    between atoms: _36  and  _38
REMARK   16  A    between atoms: _38  and  _39
REMARK   17  A    between atoms: _38  and  _41
REMARK   18  A    between atoms: _41  and  _42
REMARK   19  A    between atoms: _45  and  _47
REMARK   20  A    between atoms: _47  and  _48
REMARK   21  A    between atoms: _47  and  _50
REMARK   22  A    between atoms: _50  and  _51
REMARK   23  A    between atoms: _54  and  _56
REMARK   24  A    between atoms: _56  and  _57
REMARK   25  A    between atoms: _59  and  _61
REMARK   26  A    between atoms: _61  and  _62
REMARK   27  A    between atoms: _65  and  _67
REMARK   28  A    between atoms: _67  and  _68
REMARK   29  A    between atoms: _67  and  _70
REMARK   30  A    between atoms: _70  and  _71
REMARK   31  A    between atoms: _74  and  _76
REMARK   32  A    between atoms: _76  and  _77
REMARK   33  A    between atoms: _76  and  _79
REMARK   34  A    between atoms: _79  and  _80
REMARK   35  A    between atoms: _83  and  _85
REMARK   36  A    between atoms: _85  and  _86
REMARK   37  A    between atoms: _85  and  _88
REMARK   38  A    between atoms: _88  and  _89
REMARK   39  A    between atoms: _92  and  _94
REMARK   40  A    between atoms: _94  and  _95
REMARK   41  A    between atoms: _94  and  _97
REMARK   42  A    between atoms: _100  and  _102
REMARK   43  A    between atoms: _102  and  _103
REMARK   44  A    between atoms: _102  and  _105
REMARK   45  A    between atoms: _105  and  _106
REMARK   46  A    between atoms: _109  and  _111
REMARK   47  A    between atoms: _111  and  _112
REMARK   48  A    between atoms: _111  and  _114
REMARK   49  A    between atoms: _114  and  _115
REMARK   50  A    between atoms: _115  and  _116
REMARK   51  A    between atoms: _118  and  _120
REMARK   52  A    between atoms: _120  and  _121
REMARK   53  A    between atoms: _120  and  _123
REMARK   54  A    between atoms: _123  and  _124
REMARK   55  A    between atoms: _127  and  _129
REMARK   56  A    between atoms: _129  and  _130
REMARK   57  A    between atoms: _129  and  _132
REMARK   58  A    between atoms: _135  and  _137
REMARK   59  A    between atoms: _137  and  _138
REMARK   60  A    between atoms: _140  and  _142
REMARK   61  A    between atoms: _142  and  _143
REMARK   62  A    between atoms: _142  and  _145
REMARK   63  A    between atoms: _145  and  _146
REMARK   64  A    between atoms: _149  and  _151
REMARK   65  A    between atoms: _151  and  _152
REMARK   66  A    between atoms: _154  and  _156
REMARK   67  A    between atoms: _156  and  _157
REMARK   68  A    between atoms: _159  and  _161
REMARK   69  A    between atoms: _161  and  _162
REMARK   70  A    between atoms: _161  and  _164
REMARK   71  A    between atoms: _167  and  _169
REMARK   72  A    between atoms: _169  and  _170
REMARK   73  A    between atoms: _169  and  _172
REMARK   74  A    between atoms: _175  and  _177
REMARK   75  A    between atoms: _177  and  _178
REMARK   76  A    between atoms: _177  and  _180
REMARK   77  A    between atoms: _180  and  _181
REMARK   78  A    between atoms: _184  and  _186
REMARK   79  A    between atoms: _186  and  _187
REMARK   80  A    between atoms: _186  and  _189
REMARK   81  A    between atoms: _189  and  _190
REMARK   82  A    between atoms: _194  and  _195
REMARK   83  A    between atoms: _200  and  _202
REMARK   84  A    between atoms: _202  and  _203
REMARK   85  A    between atoms: _206  and  _208
REMARK   86  A    between atoms: _208  and  _209
REMARK   87  A    between atoms: _208  and  _211
REMARK   88  A    between atoms: _211  and  _212
REMARK   89  A    between atoms: _217  and  _219
REMARK   90  A    between atoms: _219  and  _220
REMARK   91  A    between atoms: _219  and  _222
REMARK   92  A    between atoms: _222  and  _223
REMARK   93  A    between atoms: _226  and  _228
REMARK   94  A    between atoms: _228  and  _229
REMARK   95  A    between atoms: _228  and  _231
REMARK   96  A    between atoms: _231  and  _232
REMARK   97  A    between atoms: _235  and  _237
REMARK   98  A    between atoms: _237  and  _238
REMARK   99  A    between atoms: _240  and  _242
REMARK  100  A    between atoms: _242  and  _243
REMARK  101  A    between atoms: _242  and  _245
REMARK  102  A    between atoms: _245  and  _246
REMARK  103  A    between atoms: _246  and  _247
REMARK  104  A    between atoms: _247  and  _248
REMARK  105  A    between atoms: _257  and  _259
REMARK  106  A    between atoms: _259  and  _260
REMARK  107  A    between atoms: _259  and  _262
REMARK  108  A    between atoms: _262  and  _263
REMARK  109  A    between atoms: _268  and  _270
REMARK  110  A    between atoms: _270  and  _271
REMARK  111  A    between atoms: _270  and  _273
REMARK  112  A    between atoms: _273  and  _274
REMARK  113  A    between atoms: _274  and  _275
REMARK  114  A    between atoms: _275  and  _276
REMARK  115  A    between atoms: _285  and  _287
REMARK  116  A    between atoms: _287  and  _288
REMARK  117  A    between atoms: _287  and  _290
REMARK  118  A    between atoms: _290  and  _291
REMARK  119  A    between atoms: _294  and  _296
REMARK  120  A    between atoms: _296  and  _297
REMARK  121  A    between atoms: _296  and  _299
REMARK  122  A    between atoms: _299  and  _300
REMARK  123  A    between atoms: _303  and  _305
REMARK  124  A    between atoms: _305  and  _306
REMARK  125  A    between atoms: _305  and  _308
REMARK  126  A    between atoms: _308  and  _309
REMARK  127  A    between atoms: _312  and  _314
REMARK  128  A    between atoms: _314  and  _315
REMARK  129  A    between atoms: _314  and  _317
REMARK  130  A    between atoms: _317  and  _318
REMARK  131  A    between atoms: _321  and  _323
REMARK  132  A    between atoms: _323  and  _324
REMARK  133  A    between atoms: _326  and  _328
REMARK  134  A    between atoms: _328  and  _329
REMARK  135  A    between atoms: _332  and  _334
REMARK  136  A    between atoms: _334  and  _335
REMARK  137  A    between atoms: _334  and  _337
REMARK  138  A    between atoms: _337  and  _338
REMARK  139  A    between atoms: _341  and  _343
REMARK  140  A    between atoms: _343  and  _344
REMARK  141  A    between atoms: _343  and  _346
REMARK  142  A    between atoms: _346  and  _347
REMARK  143  A    between atoms: _350  and  _352
REMARK  144  A    between atoms: _352  and  _353
REMARK  145  A    between atoms: _352  and  _355
REMARK  146  A    between atoms: _355  and  _356
REMARK  147  A    between atoms: _359  and  _361
REMARK  148  A    between atoms: _361  and  _362
REMARK  149  A    between atoms: _361  and  _364
REMARK  150  A    between atoms: _367  and  _369
REMARK  151  A    between atoms: _369  and  _370
REMARK  152  A    between atoms: _369  and  _372
REMARK  153  A    between atoms: _372  and  _373
REMARK  154  A    between atoms: _376  and  _378
REMARK  155  A    between atoms: _378  and  _379
REMARK  156  A    between atoms: _378  and  _381
REMARK  157  A    between atoms: _381  and  _382
REMARK  158  A    between atoms: _382  and  _383
REMARK  159  A    between atoms: _386  and  _388
REMARK  160  A    between atoms: _388  and  _389
REMARK  161  A    between atoms: _388  and  _391
REMARK  162  A    between atoms: _391  and  _392
REMARK  163  A    between atoms: _392  and  _393
REMARK  164  A    between atoms: _393  and  _394
REMARK  165  A    between atoms: _394  and  _395
REMARK  166  A    between atoms: _399  and  _401
REMARK  167  A    between atoms: _401  and  _402
REMARK  168  A    between atoms: _401  and  _404
REMARK  169  A    between atoms: _404  and  _405
REMARK  170  A    between atoms: _405  and  _406
REMARK  171  A    between atoms: _408  and  _410
REMARK  172  A    between atoms: _410  and  _411
REMARK  173  A    between atoms: _410  and  _413
REMARK  174  A    between atoms: _413  and  _414
REMARK  175  A    between atoms: _417  and  _419
REMARK  176  A    between atoms: _419  and  _420
REMARK  177  A    between atoms: _419  and  _422
REMARK  178  A    between atoms: _425  and  _427
REMARK  179  A    between atoms: _427  and  _428
REMARK  180  A    between atoms: _430  and  _432
REMARK  181  A    between atoms: _432  and  _433
REMARK  182  A    between atoms: _432  and  _435
REMARK  183  A    between atoms: _435  and  _436
REMARK  184  A    between atoms: _439  and  _441
REMARK  185  A    between atoms: _441  and  _442
REMARK  186  A    between atoms: _444  and  _446
REMARK  187  A    between atoms: _446  and  _447
REMARK  188  A    between atoms: _449  and  _451
REMARK  189  A    between atoms: _451  and  _452
REMARK  190  A    between atoms: _451  and  _454
REMARK  191  A    between atoms: _457  and  _459
REMARK  192  A    between atoms: _459  and  _460
REMARK  193  A    between atoms: _459  and  _462
REMARK  194  A    between atoms: _465  and  _467
REMARK  195  A    between atoms: _467  and  _468
REMARK  196  A    between atoms: _467  and  _470
REMARK  197  A    between atoms: _470  and  _471
REMARK  198  A    between atoms: _475  and  _476
REMARK  199  A    between atoms: _481  and  _483
REMARK  200  A    between atoms: _483  and  _484
REMARK  201  A    between atoms: _483  and  _486
REMARK  202  A    between atoms: _486  and  _487
REMARK  203  A    between atoms: _491  and  _492
REMARK  204  A    between atoms: _497  and  _499
REMARK  205  A    between atoms: _499  and  _500
REMARK  206  A    between atoms: _503  and  _505
REMARK  207  A    between atoms: _505  and  _506
REMARK  208  A    between atoms: _505  and  _508
REMARK  209  A    between atoms: _508  and  _509
REMARK  210  A    between atoms: _514  and  _516
REMARK  211  A    between atoms: _516  and  _517
REMARK  212  A    between atoms: _516  and  _519
REMARK  213  A    between atoms: _519  and  _520
REMARK  214  A    between atoms: _523  and  _525
REMARK  215  A    between atoms: _525  and  _526
REMARK  216  A    between atoms: _525  and  _528
REMARK  217  A    between atoms: _528  and  _529
REMARK  218  A    between atoms: _532  and  _534
REMARK  219  A    between atoms: _534  and  _535
REMARK  220  A    between atoms: _537  and  _539
REMARK  221  A    between atoms: _539  and  _540
REMARK  222  A    between atoms: _539  and  _542
REMARK  223  A    between atoms: _542  and  _543
REMARK  224  A    between atoms: _543  and  _544
REMARK  225  A    between atoms: _544  and  _545
REMARK  226  A    between atoms: _554  and  _556
REMARK  227  A    between atoms: _556  and  _557
REMARK  228  A    between atoms: _556  and  _559
REMARK  229  A    between atoms: _559  and  _560
REMARK                            x       y       z     vdW  Elec       q    Type
REMARK                         _______ _______ _______ _____ _____    ______ ____
ROOT
ATOM      1  O   HOH     1       5.463 -22.054  29.303  0.00  0.00    +0.000 OA
ENDROOT
TORSDOF 0
REMARK  Name = ../refined-set-2016/3ekp/3ekp_pocket.pdb
REMARK  229 active torsions:
REMARK  status: ('A' for Active; 'I' for Inactive)
REMARK    1  A    between atoms: _1  and  _3
REMARK    2  A    between atoms: _3  and  _4
REMARK    3  A    between atoms: _3  and  _6
REMARK    4  A    between atoms: _6  and  _7
REMARK    5  A    between atoms: _7  and  _8
REMARK    6  A    between atoms: _8  and  _9
REMARK    7  A    between atoms: _18  and  _20
REMARK    8  A    between atoms: _20  and  _21
REMARK    9  A    between atoms: _20  and  _23
REMARK   10  A    between atoms: _23  and  _24
REMARK   11  A    between atoms: _27  and  _29
REMARK   12  A    between atoms: _29  and  _30
REMARK   13  A    between atoms: _29  and  _32
REMARK   14  A    between atoms: _32  and  _33
REMARK   15  A    between atoms: _36  and  _38
REMARK   16  A    between atoms: _38  and  _39
REMARK   17  A    between atoms: _38  and  _41
REMARK   18  A    between atoms: _41  and  _42
REMARK   19  A    between atoms: _45  and  _47
REMARK   20  A    between atoms: _47  and  _48
REMARK   21  A    between atoms: _47  and  _50
REMARK   22  A    between atoms: _50  and  _51
REMARK   23  A    between atoms: _54  and  _56
REMARK   24  A    between atoms: _56  and  _57
REMARK   25  A    between atoms: _59  and  _61
REMARK   26  A    between atoms: _61  and  _62
REMARK   27  A    between atoms: _65  and  _67
REMARK   28  A    between atoms: _67  and  _68
REMARK   29  A    between atoms: _67  and  _70
REMARK   30  A    between atoms: _70  and  _71
REMARK   31  A    between atoms: _74  and  _76
REMARK   32  A    between atoms: _76  and  _77
REMARK   33  A    between atoms: _76  and  _79
REMARK   34  A    between atoms: _79  and  _80
REMARK   35  A    between atoms: _83  and  _85
REMARK   36  A    between atoms: _85  and  _86
REMARK   37  A    between atoms: _85  and  _88
REMARK   38  A    between atoms: _88  and  _89
REMARK   39  A    between atoms: _92  and  _94
REMARK   40  A    between atoms: _94  and  _95
REMARK   41  A    between atoms: _94  and  _97
REMARK   42  A    between atoms: _100  and  _102
REMARK   43  A    between atoms: _102  and  _103
REMARK   44  A    between atoms: _102  and  _105
REMARK   45  A    between atoms: _105  and  _106
REMARK   46  A    between atoms: _109  and  _111
REMARK   47  A    between atoms: _111  and  _112
REMARK   48  A    between atoms: _111  and  _114
REMARK   49  A    between atoms: _114  and  _115
REMARK   50  A    between atoms: _115  and  _116
REMARK   51  A    between atoms: _118  and  _120
REMARK   52  A    between atoms: _120  and  _121
REMARK   53  A    between atoms: _120  and  _123
REMARK   54  A    between atoms: _123  and  _124
REMARK   55  A    between atoms: _127  and  _129
REMARK   56  A    between atoms: _129  and  _130
REMARK   57  A    between atoms: _129  and  _132
REMARK   58  A    between atoms: _135  and  _137
REMARK   59  A    between atoms: _137  and  _138
REMARK   60  A    between atoms: _140  and  _142
REMARK   61  A    between atoms: _142  and  _143
REMARK   62  A    between atoms: _142  and  _145
REMARK   63  A    between atoms: _145  and  _146
REMARK   64  A    between atoms: _149  and  _151
REMARK   65  A    between atoms: _151  and  _152
REMARK   66  A    between atoms: _154  and  _156
REMARK   67  A    between atoms: _156  and  _157
REMARK   68  A    between atoms: _159  and  _161
REMARK   69  A    between atoms: _161  and  _162
REMARK   70  A    between atoms: _161  and  _164
REMARK   71  A    between atoms: _167  and  _169
REMARK   72  A    between atoms: _169  and  _170
REMARK   73  A    between atoms: _169  and  _172
REMARK   74  A    between atoms: _175  and  _177
REMARK   75  A    between atoms: _177  and  _178
REMARK   76  A    between atoms: _177  and  _180
REMARK   77  A    between atoms: _180  and  _181
REMARK   78  A    between atoms: _184  and  _186
REMARK   79  A    between atoms: _186  and  _187
REMARK   80  A    between atoms: _186  and  _189
REMARK   81  A    between atoms: _189  and  _190
REMARK   82  A    between atoms: _194  and  _195
REMARK   83  A    between atoms: _200  and  _202
REMARK   84  A    between atoms: _202  and  _203
REMARK   85  A    between atoms: _206  and  _208
REMARK   86  A    between atoms: _208  and  _209
REMARK   87  A    between atoms: _208  and  _211
REMARK   88  A    between atoms: _211  and  _212
REMARK   89  A    between atoms: _217  and  _219
REMARK   90  A    between atoms: _219  and  _220
REMARK   91  A    between atoms: _219  and  _222
REMARK   92  A    between atoms: _222  and  _223
REMARK   93  A    between atoms: _226  and  _228
REMARK   94  A    between atoms: _228  and  _229
REMARK   95  A    between atoms: _228  and  _231
REMARK   96  A    between atoms: _231  and  _232
REMARK   97  A    between atoms: _235  and  _237
REMARK   98  A    between atoms: _237  and  _238
REMARK   99  A    between atoms: _240  and  _242
REMARK  100  A    between atoms: _242  and  _243
REMARK  101  A    between atoms: _242  and  _245
REMARK  102  A    between atoms: _245  and  _246
REMARK  103  A    between atoms: _246  and  _247
REMARK  104  A    between atoms: _247  and  _248
REMARK  105  A    between atoms: _257  and  _259
REMARK  106  A    between atoms: _259  and  _260
REMARK  107  A    between atoms: _259  and  _262
REMARK  108  A    between atoms: _262  and  _263
REMARK  109  A    between atoms: _268  and  _270
REMARK  110  A    between atoms: _270  and  _271
REMARK  111  A    between atoms: _270  and  _273
REMARK  112  A    between atoms: _273  and  _274
REMARK  113  A    between atoms: _274  and  _275
REMARK  114  A    between atoms: _275  and  _276
REMARK  115  A    between atoms: _285  and  _287
REMARK  116  A    between atoms: _287  and  _288
REMARK  117  A    between atoms: _287  and  _290
REMARK  118  A    between atoms: _290  and  _291
REMARK  119  A    between atoms: _294  and  _296
REMARK  120  A    between atoms: _296  and  _297
REMARK  121  A    between atoms: _296  and  _299
REMARK  122  A    between atoms: _299  and  _300
REMARK  123  A    between atoms: _303  and  _305
REMARK  124  A    between atoms: _305  and  _306
REMARK  125  A    between atoms: _305  and  _308
REMARK  126  A    between atoms: _308  and  _309
REMARK  127  A    between atoms: _312  and  _314
REMARK  128  A    between atoms: _314  and  _315
REMARK  129  A    between atoms: _314  and  _317
REMARK  130  A    between atoms: _317  and  _318
REMARK  131  A    between atoms: _321  and  _323
REMARK  132  A    between atoms: _323  and  _324
REMARK  133  A    between atoms: _326  and  _328
REMARK  134  A    between atoms: _328  and  _329
REMARK  135  A    between atoms: _332  and  _334
REMARK  136  A    between atoms: _334  and  _335
REMARK  137  A    between atoms: _334  and  _337
REMARK  138  A    between atoms: _337  and  _338
REMARK  139  A    between atoms: _341  and  _343
REMARK  140  A    between atoms: _343  and  _344
REMARK  141  A    between atoms: _343  and  _346
REMARK  142  A    between atoms: _346  and  _347
REMARK  143  A    between atoms: _350  and  _352
REMARK  144  A    between atoms: _352  and  _353
REMARK  145  A    between atoms: _352  and  _355
REMARK  146  A    between atoms: _355  and  _356
REMARK  147  A    between atoms: _359  and  _361
REMARK  148  A    between atoms: _361  and  _362
REMARK  149  A    between atoms: _361  and  _364
REMARK  150  A    between atoms: _367  and  _369
REMARK  151  A    between atoms: _369  and  _370
REMARK  152  A    between atoms: _369  and  _372
REMARK  153  A    between atoms: _372  and  _373
REMARK  154  A    between atoms: _376  and  _378
REMARK  155  A    between atoms: _378  and  _379
REMARK  156  A    between atoms: _378  and  _381
REMARK  157  A    between atoms: _381  and  _382
REMARK  158  A    between atoms: _382  and  _383
REMARK  159  A    between atoms: _386  and  _388
REMARK  160  A    between atoms: _388  and  _389
REMARK  161  A    between atoms: _388  and  _391
REMARK  162  A    between atoms: _391  and  _392
REMARK  163  A    between atoms: _392  and  _393
REMARK  164  A    between atoms: _393  and  _394
REMARK  165  A    between atoms: _394  and  _395
REMARK  166  A    between atoms: _399  and  _401
REMARK  167  A    between atoms: _401  and  _402
REMARK  168  A    between atoms: _401  and  _404
REMARK  169  A    between atoms: _404  and  _405
REMARK  170  A    between atoms: _405  and  _406
REMARK  171  A    between atoms: _408  and  _410
REMARK  172  A    between atoms: _410  and  _411
REMARK  173  A    between atoms: _410  and  _413
REMARK  174  A    between atoms: _413  and  _414
REMARK  175  A    between atoms: _417  and  _419
REMARK  176  A    between atoms: _419  and  _420
REMARK  177  A    between atoms: _419  and  _422
REMARK  178  A    between atoms: _425  and  _427
REMARK  179  A    between atoms: _427  and  _428
REMARK  180  A    between atoms: _430  and  _432
REMARK  181  A    between atoms: _432  and  _433
REMARK  182  A    between atoms: _432  and  _435
REMARK  183  A    between atoms: _435  and  _436
REMARK  184  A    between atoms: _439  and  _441
REMARK  185  A    between atoms: _441  and  _442
REMARK  186  A    between atoms: _444  and  _446
REMARK  187  A    between atoms: _446  and  _447
REMARK  188  A    between atoms: _449  and  _451
REMARK  189  A    between atoms: _451  and  _452
REMARK  190  A    between atoms: _451  and  _454
REMARK  191  A    between atoms: _457  and  _459
REMARK  192  A    between atoms: _459  and  _460
REMARK  193  A    between atoms: _459  and  _462
REMARK  194  A    between atoms: _465  and  _467
REMARK  195  A    between atoms: _467  and  _468
REMARK  196  A    between atoms: _467  and  _470
REMARK  197  A    between atoms: _470  and  _471
REMARK  198  A    between atoms: _475  and  _476
REMARK  199  A    between atoms: _481  and  _483
REMARK  200  A    between atoms: _483  and  _484
REMARK  201  A    between atoms: _483  and  _486
REMARK  202  A    between atoms: _486  and  _487
REMARK  203  A    between atoms: _491  and  _492
REMARK  204  A    between atoms: _497  and  _499
REMARK  205  A    between atoms: _499  and  _500
REMARK  206  A    between atoms: _503  and  _505
REMARK  207  A    between atoms: _505  and  _506
REMARK  208  A    between atoms: _505  and  _508
REMARK  209  A    between atoms: _508  and  _509
REMARK  210  A    between atoms: _514  and  _516
REMARK  211  A    between atoms: _516  and  _517
REMARK  212  A    between atoms: _516  and  _519
REMARK  213  A    between atoms: _519  and  _520
REMARK  214  A    between atoms: _523  and  _525
REMARK  215  A    between atoms: _525  and  _526
REMARK  216  A    between atoms: _525  and  _528
REMARK  217  A    between atoms: _528  and  _529
REMARK  218  A    between atoms: _532  and  _534
REMARK  219  A    between atoms: _534  and  _535
REMARK  220  A    between atoms: _537  and  _539
REMARK  221  A    between atoms: _539  and  _540
REMARK  222  A    between atoms: _539  and  _542
REMARK  223  A    between atoms: _542  and  _543
REMARK  224  A    between atoms: _543  and  _544
REMARK  225  A    between atoms: _544  and  _545
REMARK  226  A    between atoms: _554  and  _556
REMARK  227  A    between atoms: _556  and  _557
REMARK  228  A    between atoms: _556  and  _559
REMARK  229  A    between atoms: _559  and  _560
REMARK                            x       y       z     vdW  Elec       q    Type
REMARK                         _______ _______ _______ _____ _____    ______ ____
ROOT
ATOM      1  O   HOH     1      22.602 -18.501  33.910  0.00  0.00    +0.000 OA
ENDROOT
TORSDOF 0
REMARK  Name = ../refined-set-2016/3ekp/3ekp_pocket.pdb
REMARK  229 active torsions:
REMARK  status: ('A' for Active; 'I' for Inactive)
REMARK    1  A    between atoms: _1  and  _3
REMARK    2  A    between atoms: _3  and  _4
REMARK    3  A    between atoms: _3  and  _6
REMARK    4  A    between atoms: _6  and  _7
REMARK    5  A    between atoms: _7  and  _8
REMARK    6  A    between atoms: _8  and  _9
REMARK    7  A    between atoms: _18  and  _20
REMARK    8  A    between atoms: _20  and  _21
REMARK    9  A    between atoms: _20  and  _23
REMARK   10  A    between atoms: _23  and  _24
REMARK   11  A    between atoms: _27  and  _29
REMARK   12  A    between atoms: _29  and  _30
REMARK   13  A    between atoms: _29  and  _32
REMARK   14  A    between atoms: _32  and  _33
REMARK   15  A    between atoms: _36  and  _38
REMARK   16  A    between atoms: _38  and  _39
REMARK   17  A    between atoms: _38  and  _41
REMARK   18  A    between atoms: _41  and  _42
REMARK   19  A    between atoms: _45  and  _47
REMARK   20  A    between atoms: _47  and  _48
REMARK   21  A    between atoms: _47  and  _50
REMARK   22  A    between atoms: _50  and  _51
REMARK   23  A    between atoms: _54  and  _56
REMARK   24  A    between atoms: _56  and  _57
REMARK   25  A    between atoms: _59  and  _61
REMARK   26  A    between atoms: _61  and  _62
REMARK   27  A    between atoms: _65  and  _67
REMARK   28  A    between atoms: _67  and  _68
REMARK   29  A    between atoms: _67  and  _70
REMARK   30  A    between atoms: _70  and  _71
REMARK   31  A    between atoms: _74  and  _76
REMARK   32  A    between atoms: _76  and  _77
REMARK   33  A    between atoms: _76  and  _79
REMARK   34  A    between atoms: _79  and  _80
REMARK   35  A    between atoms: _83  and  _85
REMARK   36  A    between atoms: _85  and  _86
REMARK   37  A    between atoms: _85  and  _88
REMARK   38  A    between atoms: _88  and  _89
REMARK   39  A    between atoms: _92  and  _94
REMARK   40  A    between atoms: _94  and  _95
REMARK   41  A    between atoms: _94  and  _97
REMARK   42  A    between atoms: _100  and  _102
REMARK   43  A    between atoms: _102  and  _103
REMARK   44  A    between atoms: _102  and  _105
REMARK   45  A    between atoms: _105  and  _106
REMARK   46  A    between atoms: _109  and  _111
REMARK   47  A    between atoms: _111  and  _112
REMARK   48  A    between atoms: _111  and  _114
REMARK   49  A    between atoms: _114  and  _115
REMARK   50  A    between atoms: _115  and  _116
REMARK   51  A    between atoms: _118  and  _120
REMARK   52  A    between atoms: _120  and  _121
REMARK   53  A    between atoms: _120  and  _123
REMARK   54  A    between atoms: _123  and  _124
REMARK   55  A    between atoms: _127  and  _129
REMARK   56  A    between atoms: _129  and  _130
REMARK   57  A    between atoms: _129  and  _132
REMARK   58  A    between atoms: _135  and  _137
REMARK   59  A    between atoms: _137  and  _138
REMARK   60  A    between atoms: _140  and  _142
REMARK   61  A    between atoms: _142  and  _143
REMARK   62  A    between atoms: _142  and  _145
REMARK   63  A    between atoms: _145  and  _146
REMARK   64  A    between atoms: _149  and  _151
REMARK   65  A    between atoms: _151  and  _152
REMARK   66  A    between atoms: _154  and  _156
REMARK   67  A    between atoms: _156  and  _157
REMARK   68  A    between atoms: _159  and  _161
REMARK   69  A    between atoms: _161  and  _162
REMARK   70  A    between atoms: _161  and  _164
REMARK   71  A    between atoms: _167  and  _169
REMARK   72  A    between atoms: _169  and  _170
REMARK   73  A    between atoms: _169  and  _172
REMARK   74  A    between atoms: _175  and  _177
REMARK   75  A    between atoms: _177  and  _178
REMARK   76  A    between atoms: _177  and  _180
REMARK   77  A    between atoms: _180  and  _181
REMARK   78  A    between atoms: _184  and  _186
REMARK   79  A    between atoms: _186  and  _187
REMARK   80  A    between atoms: _186  and  _189
REMARK   81  A    between atoms: _189  and  _190
REMARK   82  A    between atoms: _194  and  _195
REMARK   83  A    between atoms: _200  and  _202
REMARK   84  A    between atoms: _202  and  _203
REMARK   85  A    between atoms: _206  and  _208
REMARK   86  A    between atoms: _208  and  _209
REMARK   87  A    between atoms: _208  and  _211
REMARK   88  A    between atoms: _211  and  _212
REMARK   89  A    between atoms: _217  and  _219
REMARK   90  A    between atoms: _219  and  _220
REMARK   91  A    between atoms: _219  and  _222
REMARK   92  A    between atoms: _222  and  _223
REMARK   93  A    between atoms: _226  and  _228
REMARK   94  A    between atoms: _228  and  _229
REMARK   95  A    between atoms: _228  and  _231
REMARK   96  A    between atoms: _231  and  _232
REMARK   97  A    between atoms: _235  and  _237
REMARK   98  A    between atoms: _237  and  _238
REMARK   99  A    between atoms: _240  and  _242
REMARK  100  A    between atoms: _242  and  _243
REMARK  101  A    between atoms: _242  and  _245
REMARK  102  A    between atoms: _245  and  _246
REMARK  103  A    between atoms: _246  and  _247
REMARK  104  A    between atoms: _247  and  _248
REMARK  105  A    between atoms: _257  and  _259
REMARK  106  A    between atoms: _259  and  _260
REMARK  107  A    between atoms: _259  and  _262
REMARK  108  A    between atoms: _262  and  _263
REMARK  109  A    between atoms: _268  and  _270
REMARK  110  A    between atoms: _270  and  _271
REMARK  111  A    between atoms: _270  and  _273
REMARK  112  A    between atoms: _273  and  _274
REMARK  113  A    between atoms: _274  and  _275
REMARK  114  A    between atoms: _275  and  _276
REMARK  115  A    between atoms: _285  and  _287
REMARK  116  A    between atoms: _287  and  _288
REMARK  117  A    between atoms: _287  and  _290
REMARK  118  A    between atoms: _290  and  _291
REMARK  119  A    between atoms: _294  and  _296
REMARK  120  A    between atoms: _296  and  _297
REMARK  121  A    between atoms: _296  and  _299
REMARK  122  A    between atoms: _299  and  _300
REMARK  123  A    between atoms: _303  and  _305
REMARK  124  A    between atoms: _305  and  _306
REMARK  125  A    between atoms: _305  and  _308
REMARK  126  A    between atoms: _308  and  _309
REMARK  127  A    between atoms: _312  and  _314
REMARK  128  A    between atoms: _314  and  _315
REMARK  129  A    between atoms: _314  and  _317
REMARK  130  A    between atoms: _317  and  _318
REMARK  131  A    between atoms: _321  and  _323
REMARK  132  A    between atoms: _323  and  _324
REMARK  133  A    between atoms: _326  and  _328
REMARK  134  A    between atoms: _328  and  _329
REMARK  135  A    between atoms: _332  and  _334
REMARK  136  A    between atoms: _334  and  _335
REMARK  137  A    between atoms: _334  and  _337
REMARK  138  A    between atoms: _337  and  _338
REMARK  139  A    between atoms: _341  and  _343
REMARK  140  A    between atoms: _343  and  _344
REMARK  141  A    between atoms: _343  and  _346
REMARK  142  A    between atoms: _346  and  _347
REMARK  143  A    between atoms: _350  and  _352
REMARK  144  A    between atoms: _352  and  _353
REMARK  145  A    between atoms: _352  and  _355
REMARK  146  A    between atoms: _355  and  _356
REMARK  147  A    between atoms: _359  and  _361
REMARK  148  A    between atoms: _361  and  _362
REMARK  149  A    between atoms: _361  and  _364
REMARK  150  A    between atoms: _367  and  _369
REMARK  151  A    between atoms: _369  and  _370
REMARK  152  A    between atoms: _369  and  _372
REMARK  153  A    between atoms: _372  and  _373
REMARK  154  A    between atoms: _376  and  _378
REMARK  155  A    between atoms: _378  and  _379
REMARK  156  A    between atoms: _378  and  _381
REMARK  157  A    between atoms: _381  and  _382
REMARK  158  A    between atoms: _382  and  _383
REMARK  159  A    between atoms: _386  and  _388
REMARK  160  A    between atoms: _388  and  _389
REMARK  161  A    between atoms: _388  and  _391
REMARK  162  A    between atoms: _391  and  _392
REMARK  163  A    between atoms: _392  and  _393
REMARK  164  A    between atoms: _393  and  _394
REMARK  165  A    between atoms: _394  and  _395
REMARK  166  A    between atoms: _399  and  _401
REMARK  167  A    between atoms: _401  and  _402
REMARK  168  A    between atoms: _401  and  _404
REMARK  169  A    between atoms: _404  and  _405
REMARK  170  A    between atoms: _405  and  _406
REMARK  171  A    between atoms: _408  and  _410
REMARK  172  A    between atoms: _410  and  _411
REMARK  173  A    between atoms: _410  and  _413
REMARK  174  A    between atoms: _413  and  _414
REMARK  175  A    between atoms: _417  and  _419
REMARK  176  A    between atoms: _419  and  _420
REMARK  177  A    between atoms: _419  and  _422
REMARK  178  A    between atoms: _425  and  _427
REMARK  179  A    between atoms: _427  and  _428
REMARK  180  A    between atoms: _430  and  _432
REMARK  181  A    between atoms: _432  and  _433
REMARK  182  A    between atoms: _432  and  _435
REMARK  183  A    between atoms: _435  and  _436
REMARK  184  A    between atoms: _439  and  _441
REMARK  185  A    between atoms: _441  and  _442
REMARK  186  A    between atoms: _444  and  _446
REMARK  187  A    between atoms: _446  and  _447
REMARK  188  A    between atoms: _449  and  _451
REMARK  189  A    between atoms: _451  and  _452
REMARK  190  A    between atoms: _451  and  _454
REMARK  191  A    between atoms: _457  and  _459
REMARK  192  A    between atoms: _459  and  _460
REMARK  193  A    between atoms: _459  and  _462
REMARK  194  A    between atoms: _465  and  _467
REMARK  195  A    between atoms: _467  and  _468
REMARK  196  A    between atoms: _467  and  _470
REMARK  197  A    between atoms: _470  and  _471
REMARK  198  A    between atoms: _475  and  _476
REMARK  199  A    between atoms: _481  and  _483
REMARK  200  A    between atoms: _483  and  _484
REMARK  201  A    between atoms: _483  and  _486
REMARK  202  A    between atoms: _486  and  _487
REMARK  203  A    between atoms: _491  and  _492
REMARK  204  A    between atoms: _497  and  _499
REMARK  205  A    between atoms: _499  and  _500
REMARK  206  A    between atoms: _503  and  _505
REMARK  207  A    between atoms: _505  and  _506
REMARK  208  A    between atoms: _505  and  _508
REMARK  209  A    between atoms: _508  and  _509
REMARK  210  A    between atoms: _514  and  _516
REMARK  211  A    between atoms: _516  and  _517
REMARK  212  A    between atoms: _516  and  _519
REMARK  213  A    between atoms: _519  and  _520
REMARK  214  A    between atoms: _523  and  _525
REMARK  215  A    between atoms: _525  and  _526
REMARK  216  A    between atoms: _525  and  _528
REMARK  217  A    between atoms: _528  and  _529
REMARK  218  A    between atoms: _532  and  _534
REMARK  219  A    between atoms: _534  and  _535
REMARK  220  A    between atoms: _537  and  _539
REMARK  221  A    between atoms: _539  and  _540
REMARK  222  A    between atoms: _539  and  _542
REMARK  223  A    between atoms: _542  and  _543
REMARK  224  A    between atoms: _543  and  _544
REMARK  225  A    between atoms: _544  and  _545
REMARK  226  A    between atoms: _554  and  _556
REMARK  227  A    between atoms: _556  and  _557
REMARK  228  A    between atoms: _556  and  _559
REMARK  229  A    between atoms: _559  and  _560
REMARK                            x       y       z     vdW  Elec       q    Type
REMARK                         _______ _______ _______ _____ _____    ______ ____
ROOT
ATOM      1  O   HOH     1       9.813 -29.519  32.726  0.00  0.00    +0.000 OA
ENDROOT
TORSDOF 0
REMARK  Name = ../refined-set-2016/3ekp/3ekp_pocket.pdb
REMARK  229 active torsions:
REMARK  status: ('A' for Active; 'I' for Inactive)
REMARK    1  A    between atoms: _1  and  _3
REMARK    2  A    between atoms: _3  and  _4
REMARK    3  A    between atoms: _3  and  _6
REMARK    4  A    between atoms: _6  and  _7
REMARK    5  A    between atoms: _7  and  _8
REMARK    6  A    between atoms: _8  and  _9
REMARK    7  A    between atoms: _18  and  _20
REMARK    8  A    between atoms: _20  and  _21
REMARK    9  A    between atoms: _20  and  _23
REMARK   10  A    between atoms: _23  and  _24
REMARK   11  A    between atoms: _27  and  _29
REMARK   12  A    between atoms: _29  and  _30
REMARK   13  A    between atoms: _29  and  _32
REMARK   14  A    between atoms: _32  and  _33
REMARK   15  A    between atoms: _36  and  _38
REMARK   16  A    between atoms: _38  and  _39
REMARK   17  A    between atoms: _38  and  _41
REMARK   18  A    between atoms: _41  and  _42
REMARK   19  A    between atoms: _45  and  _47
REMARK   20  A    between atoms: _47  and  _48
REMARK   21  A    between atoms: _47  and  _50
REMARK   22  A    between atoms: _50  and  _51
REMARK   23  A    between atoms: _54  and  _56
REMARK   24  A    between atoms: _56  and  _57
REMARK   25  A    between atoms: _59  and  _61
REMARK   26  A    between atoms: _61  and  _62
REMARK   27  A    between atoms: _65  and  _67
REMARK   28  A    between atoms: _67  and  _68
REMARK   29  A    between atoms: _67  and  _70
REMARK   30  A    between atoms: _70  and  _71
REMARK   31  A    between atoms: _74  and  _76
REMARK   32  A    between atoms: _76  and  _77
REMARK   33  A    between atoms: _76  and  _79
REMARK   34  A    between atoms: _79  and  _80
REMARK   35  A    between atoms: _83  and  _85
REMARK   36  A    between atoms: _85  and  _86
REMARK   37  A    between atoms: _85  and  _88
REMARK   38  A    between atoms: _88  and  _89
REMARK   39  A    between atoms: _92  and  _94
REMARK   40  A    between atoms: _94  and  _95
REMARK   41  A    between atoms: _94  and  _97
REMARK   42  A    between atoms: _100  and  _102
REMARK   43  A    between atoms: _102  and  _103
REMARK   44  A    between atoms: _102  and  _105
REMARK   45  A    between atoms: _105  and  _106
REMARK   46  A    between atoms: _109  and  _111
REMARK   47  A    between atoms: _111  and  _112
REMARK   48  A    between atoms: _111  and  _114
REMARK   49  A    between atoms: _114  and  _115
REMARK   50  A    between atoms: _115  and  _116
REMARK   51  A    between atoms: _118  and  _120
REMARK   52  A    between atoms: _120  and  _121
REMARK   53  A    between atoms: _120  and  _123
REMARK   54  A    between atoms: _123  and  _124
REMARK   55  A    between atoms: _127  and  _129
REMARK   56  A    between atoms: _129  and  _130
REMARK   57  A    between atoms: _129  and  _132
REMARK   58  A    between atoms: _135  and  _137
REMARK   59  A    between atoms: _137  and  _138
REMARK   60  A    between atoms: _140  and  _142
REMARK   61  A    between atoms: _142  and  _143
REMARK   62  A    between atoms: _142  and  _145
REMARK   63  A    between atoms: _145  and  _146
REMARK   64  A    between atoms: _149  and  _151
REMARK   65  A    between atoms: _151  and  _152
REMARK   66  A    between atoms: _154  and  _156
REMARK   67  A    between atoms: _156  and  _157
REMARK   68  A    between atoms: _159  and  _161
REMARK   69  A    between atoms: _161  and  _162
REMARK   70  A    between atoms: _161  and  _164
REMARK   71  A    between atoms: _167  and  _169
REMARK   72  A    between atoms: _169  and  _170
REMARK   73  A    between atoms: _169  and  _172
REMARK   74  A    between atoms: _175  and  _177
REMARK   75  A    between atoms: _177  and  _178
REMARK   76  A    between atoms: _177  and  _180
REMARK   77  A    between atoms: _180  and  _181
REMARK   78  A    between atoms: _184  and  _186
REMARK   79  A    between atoms: _186  and  _187
REMARK   80  A    between atoms: _186  and  _189
REMARK   81  A    between atoms: _189  and  _190
REMARK   82  A    between atoms: _194  and  _195
REMARK   83  A    between atoms: _200  and  _202
REMARK   84  A    between atoms: _202  and  _203
REMARK   85  A    between atoms: _206  and  _208
REMARK   86  A    between atoms: _208  and  _209
REMARK   87  A    between atoms: _208  and  _211
REMARK   88  A    between atoms: _211  and  _212
REMARK   89  A    between atoms: _217  and  _219
REMARK   90  A    between atoms: _219  and  _220
REMARK   91  A    between atoms: _219  and  _222
REMARK   92  A    between atoms: _222  and  _223
REMARK   93  A    between atoms: _226  and  _228
REMARK   94  A    between atoms: _228  and  _229
REMARK   95  A    between atoms: _228  and  _231
REMARK   96  A    between atoms: _231  and  _232
REMARK   97  A    between atoms: _235  and  _237
REMARK   98  A    between atoms: _237  and  _238
REMARK   99  A    between atoms: _240  and  _242
REMARK  100  A    between atoms: _242  and  _243
REMARK  101  A    between atoms: _242  and  _245
REMARK  102  A    between atoms: _245  and  _246
REMARK  103  A    between atoms: _246  and  _247
REMARK  104  A    between atoms: _247  and  _248
REMARK  105  A    between atoms: _257  and  _259
REMARK  106  A    between atoms: _259  and  _260
REMARK  107  A    between atoms: _259  and  _262
REMARK  108  A    between atoms: _262  and  _263
REMARK  109  A    between atoms: _268  and  _270
REMARK  110  A    between atoms: _270  and  _271
REMARK  111  A    between atoms: _270  and  _273
REMARK  112  A    between atoms: _273  and  _274
REMARK  113  A    between atoms: _274  and  _275
REMARK  114  A    between atoms: _275  and  _276
REMARK  115  A    between atoms: _285  and  _287
REMARK  116  A    between atoms: _287  and  _288
REMARK  117  A    between atoms: _287  and  _290
REMARK  118  A    between atoms: _290  and  _291
REMARK  119  A    between atoms: _294  and  _296
REMARK  120  A    between atoms: _296  and  _297
REMARK  121  A    between atoms: _296  and  _299
REMARK  122  A    between atoms: _299  and  _300
REMARK  123  A    between atoms: _303  and  _305
REMARK  124  A    between atoms: _305  and  _306
REMARK  125  A    between atoms: _305  and  _308
REMARK  126  A    between atoms: _308  and  _309
REMARK  127  A    between atoms: _312  and  _314
REMARK  128  A    between atoms: _314  and  _315
REMARK  129  A    between atoms: _314  and  _317
REMARK  130  A    between atoms: _317  and  _318
REMARK  131  A    between atoms: _321  and  _323
REMARK  132  A    between atoms: _323  and  _324
REMARK  133  A    between atoms: _326  and  _328
REMARK  134  A    between atoms: _328  and  _329
REMARK  135  A    between atoms: _332  and  _334
REMARK  136  A    between atoms: _334  and  _335
REMARK  137  A    between atoms: _334  and  _337
REMARK  138  A    between atoms: _337  and  _338
REMARK  139  A    between atoms: _341  and  _343
REMARK  140  A    between atoms: _343  and  _344
REMARK  141  A    between atoms: _343  and  _346
REMARK  142  A    between atoms: _346  and  _347
REMARK  143  A    between atoms: _350  and  _352
REMARK  144  A    between atoms: _352  and  _353
REMARK  145  A    between atoms: _352  and  _355
REMARK  146  A    between atoms: _355  and  _356
REMARK  147  A    between atoms: _359  and  _361
REMARK  148  A    between atoms: _361  and  _362
REMARK  149  A    between atoms: _361  and  _364
REMARK  150  A    between atoms: _367  and  _369
REMARK  151  A    between atoms: _369  and  _370
REMARK  152  A    between atoms: _369  and  _372
REMARK  153  A    between atoms: _372  and  _373
REMARK  154  A    between atoms: _376  and  _378
REMARK  155  A    between atoms: _378  and  _379
REMARK  156  A    between atoms: _378  and  _381
REMARK  157  A    between atoms: _381  and  _382
REMARK  158  A    between atoms: _382  and  _383
REMARK  159  A    between atoms: _386  and  _388
REMARK  160  A    between atoms: _388  and  _389
REMARK  161  A    between atoms: _388  and  _391
REMARK  162  A    between atoms: _391  and  _392
REMARK  163  A    between atoms: _392  and  _393
REMARK  164  A    between atoms: _393  and  _394
REMARK  165  A    between atoms: _394  and  _395
REMARK  166  A    between atoms: _399  and  _401
REMARK  167  A    between atoms: _401  and  _402
REMARK  168  A    between atoms: _401  and  _404
REMARK  169  A    between atoms: _404  and  _405
REMARK  170  A    between atoms: _405  and  _406
REMARK  171  A    between atoms: _408  and  _410
REMARK  172  A    between atoms: _410  and  _411
REMARK  173  A    between atoms: _410  and  _413
REMARK  174  A    between atoms: _413  and  _414
REMARK  175  A    between atoms: _417  and  _419
REMARK  176  A    between atoms: _419  and  _420
REMARK  177  A    between atoms: _419  and  _422
REMARK  178  A    between atoms: _425  and  _427
REMARK  179  A    between atoms: _427  and  _428
REMARK  180  A    between atoms: _430  and  _432
REMARK  181  A    between atoms: _432  and  _433
REMARK  182  A    between atoms: _432  and  _435
REMARK  183  A    between atoms: _435  and  _436
REMARK  184  A    between atoms: _439  and  _441
REMARK  185  A    between atoms: _441  and  _442
REMARK  186  A    between atoms: _444  and  _446
REMARK  187  A    between atoms: _446  and  _447
REMARK  188  A    between atoms: _449  and  _451
REMARK  189  A    between atoms: _451  and  _452
REMARK  190  A    between atoms: _451  and  _454
REMARK  191  A    between atoms: _457  and  _459
REMARK  192  A    between atoms: _459  and  _460
REMARK  193  A    between atoms: _459  and  _462
REMARK  194  A    between atoms: _465  and  _467
REMARK  195  A    between atoms: _467  and  _468
REMARK  196  A    between atoms: _467  and  _470
REMARK  197  A    between atoms: _470  and  _471
REMARK  198  A    between atoms: _475  and  _476
REMARK  199  A    between atoms: _481  and  _483
REMARK  200  A    between atoms: _483  and  _484
REMARK  201  A    between atoms: _483  and  _486
REMARK  202  A    between atoms: _486  and  _487
REMARK  203  A    between atoms: _491  and  _492
REMARK  204  A    between atoms: _497  and  _499
REMARK  205  A    between atoms: _499  and  _500
REMARK  206  A    between atoms: _503  and  _505
REMARK  207  A    between atoms: _505  and  _506
REMARK  208  A    between atoms: _505  and  _508
REMARK  209  A    between atoms: _508  and  _509
REMARK  210  A    between atoms: _514  and  _516
REMARK  211  A    between atoms: _516  and  _517
REMARK  212  A    between atoms: _516  and  _519
REMARK  213  A    between atoms: _519  and  _520
REMARK  214  A    between atoms: _523  and  _525
REMARK  215  A    between atoms: _525  and  _526
REMARK  216  A    between atoms: _525  and  _528
REMARK  217  A    between atoms: _528  and  _529
REMARK  218  A    between atoms: _532  and  _534
REMARK  219  A    between atoms: _534  and  _535
REMARK  220  A    between atoms: _537  and  _539
REMARK  221  A    between atoms: _539  and  _540
REMARK  222  A    between atoms: _539  and  _542
REMARK  223  A    between atoms: _542  and  _543
REMARK  224  A    between atoms: _543  and  _544
REMARK  225  A    between atoms: _544  and  _545
REMARK  226  A    between atoms: _554  and  _556
REMARK  227  A    between atoms: _556  and  _557
REMARK  228  A    between atoms: _556  and  _559
REMARK  229  A    between atoms: _559  and  _560
REMARK                            x       y       z     vdW  Elec       q    Type
REMARK                         _______ _______ _______ _____ _____    ______ ____
ROOT
ATOM      1  O   HOH     1       5.682 -27.167  34.742  0.00  0.00    +0.000 OA
ENDROOT
TORSDOF 0
REMARK  Name = ../refined-set-2016/3ekp/3ekp_pocket.pdb
REMARK  229 active torsions:
REMARK  status: ('A' for Active; 'I' for Inactive)
REMARK    1  A    between atoms: _1  and  _3
REMARK    2  A    between atoms: _3  and  _4
REMARK    3  A    between atoms: _3  and  _6
REMARK    4  A    between atoms: _6  and  _7
REMARK    5  A    between atoms: _7  and  _8
REMARK    6  A    between atoms: _8  and  _9
REMARK    7  A    between atoms: _18  and  _20
REMARK    8  A    between atoms: _20  and  _21
REMARK    9  A    between atoms: _20  and  _23
REMARK   10  A    between atoms: _23  and  _24
REMARK   11  A    between atoms: _27  and  _29
REMARK   12  A    between atoms: _29  and  _30
REMARK   13  A    between atoms: _29  and  _32
REMARK   14  A    between atoms: _32  and  _33
REMARK   15  A    between atoms: _36  and  _38
REMARK   16  A    between atoms: _38  and  _39
REMARK   17  A    between atoms: _38  and  _41
REMARK   18  A    between atoms: _41  and  _42
REMARK   19  A    between atoms: _45  and  _47
REMARK   20  A    between atoms: _47  and  _48
REMARK   21  A    between atoms: _47  and  _50
REMARK   22  A    between atoms: _50  and  _51
REMARK   23  A    between atoms: _54  and  _56
REMARK   24  A    between atoms: _56  and  _57
REMARK   25  A    between atoms: _59  and  _61
REMARK   26  A    between atoms: _61  and  _62
REMARK   27  A    between atoms: _65  and  _67
REMARK   28  A    between atoms: _67  and  _68
REMARK   29  A    between atoms: _67  and  _70
REMARK   30  A    between atoms: _70  and  _71
REMARK   31  A    between atoms: _74  and  _76
REMARK   32  A    between atoms: _76  and  _77
REMARK   33  A    between atoms: _76  and  _79
REMARK   34  A    between atoms: _79  and  _80
REMARK   35  A    between atoms: _83  and  _85
REMARK   36  A    between atoms: _85  and  _86
REMARK   37  A    between atoms: _85  and  _88
REMARK   38  A    between atoms: _88  and  _89
REMARK   39  A    between atoms: _92  and  _94
REMARK   40  A    between atoms: _94  and  _95
REMARK   41  A    between atoms: _94  and  _97
REMARK   42  A    between atoms: _100  and  _102
REMARK   43  A    between atoms: _102  and  _103
REMARK   44  A    between atoms: _102  and  _105
REMARK   45  A    between atoms: _105  and  _106
REMARK   46  A    between atoms: _109  and  _111
REMARK   47  A    between atoms: _111  and  _112
REMARK   48  A    between atoms: _111  and  _114
REMARK   49  A    between atoms: _114  and  _115
REMARK   50  A    between atoms: _115  and  _116
REMARK   51  A    between atoms: _118  and  _120
REMARK   52  A    between atoms: _120  and  _121
REMARK   53  A    between atoms: _120  and  _123
REMARK   54  A    between atoms: _123  and  _124
REMARK   55  A    between atoms: _127  and  _129
REMARK   56  A    between atoms: _129  and  _130
REMARK   57  A    between atoms: _129  and  _132
REMARK   58  A    between atoms: _135  and  _137
REMARK   59  A    between atoms: _137  and  _138
REMARK   60  A    between atoms: _140  and  _142
REMARK   61  A    between atoms: _142  and  _143
REMARK   62  A    between atoms: _142  and  _145
REMARK   63  A    between atoms: _145  and  _146
REMARK   64  A    between atoms: _149  and  _151
REMARK   65  A    between atoms: _151  and  _152
REMARK   66  A    between atoms: _154  and  _156
REMARK   67  A    between atoms: _156  and  _157
REMARK   68  A    between atoms: _159  and  _161
REMARK   69  A    between atoms: _161  and  _162
REMARK   70  A    between atoms: _161  and  _164
REMARK   71  A    between atoms: _167  and  _169
REMARK   72  A    between atoms: _169  and  _170
REMARK   73  A    between atoms: _169  and  _172
REMARK   74  A    between atoms: _175  and  _177
REMARK   75  A    between atoms: _177  and  _178
REMARK   76  A    between atoms: _177  and  _180
REMARK   77  A    between atoms: _180  and  _181
REMARK   78  A    between atoms: _184  and  _186
REMARK   79  A    between atoms: _186  and  _187
REMARK   80  A    between atoms: _186  and  _189
REMARK   81  A    between atoms: _189  and  _190
REMARK   82  A    between atoms: _194  and  _195
REMARK   83  A    between atoms: _200  and  _202
REMARK   84  A    between atoms: _202  and  _203
REMARK   85  A    between atoms: _206  and  _208
REMARK   86  A    between atoms: _208  and  _209
REMARK   87  A    between atoms: _208  and  _211
REMARK   88  A    between atoms: _211  and  _212
REMARK   89  A    between atoms: _217  and  _219
REMARK   90  A    between atoms: _219  and  _220
REMARK   91  A    between atoms: _219  and  _222
REMARK   92  A    between atoms: _222  and  _223
REMARK   93  A    between atoms: _226  and  _228
REMARK   94  A    between atoms: _228  and  _229
REMARK   95  A    between atoms: _228  and  _231
REMARK   96  A    between atoms: _231  and  _232
REMARK   97  A    between atoms: _235  and  _237
REMARK   98  A    between atoms: _237  and  _238
REMARK   99  A    between atoms: _240  and  _242
REMARK  100  A    between atoms: _242  and  _243
REMARK  101  A    between atoms: _242  and  _245
REMARK  102  A    between atoms: _245  and  _246
REMARK  103  A    between atoms: _246  and  _247
REMARK  104  A    between atoms: _247  and  _248
REMARK  105  A    between atoms: _257  and  _259
REMARK  106  A    between atoms: _259  and  _260
REMARK  107  A    between atoms: _259  and  _262
REMARK  108  A    between atoms: _262  and  _263
REMARK  109  A    between atoms: _268  and  _270
REMARK  110  A    between atoms: _270  and  _271
REMARK  111  A    between atoms: _270  and  _273
REMARK  112  A    between atoms: _273  and  _274
REMARK  113  A    between atoms: _274  and  _275
REMARK  114  A    between atoms: _275  and  _276
REMARK  115  A    between atoms: _285  and  _287
REMARK  116  A    between atoms: _287  and  _288
REMARK  117  A    between atoms: _287  and  _290
REMARK  118  A    between atoms: _290  and  _291
REMARK  119  A    between atoms: _294  and  _296
REMARK  120  A    between atoms: _296  and  _297
REMARK  121  A    between atoms: _296  and  _299
REMARK  122  A    between atoms: _299  and  _300
REMARK  123  A    between atoms: _303  and  _305
REMARK  124  A    between atoms: _305  and  _306
REMARK  125  A    between atoms: _305  and  _308
REMARK  126  A    between atoms: _308  and  _309
REMARK  127  A    between atoms: _312  and  _314
REMARK  128  A    between atoms: _314  and  _315
REMARK  129  A    between atoms: _314  and  _317
REMARK  130  A    between atoms: _317  and  _318
REMARK  131  A    between atoms: _321  and  _323
REMARK  132  A    between atoms: _323  and  _324
REMARK  133  A    between atoms: _326  and  _328
REMARK  134  A    between atoms: _328  and  _329
REMARK  135  A    between atoms: _332  and  _334
REMARK  136  A    between atoms: _334  and  _335
REMARK  137  A    between atoms: _334  and  _337
REMARK  138  A    between atoms: _337  and  _338
REMARK  139  A    between atoms: _341  and  _343
REMARK  140  A    between atoms: _343  and  _344
REMARK  141  A    between atoms: _343  and  _346
REMARK  142  A    between atoms: _346  and  _347
REMARK  143  A    between atoms: _350  and  _352
REMARK  144  A    between atoms: _352  and  _353
REMARK  145  A    between atoms: _352  and  _355
REMARK  146  A    between atoms: _355  and  _356
REMARK  147  A    between atoms: _359  and  _361
REMARK  148  A    between atoms: _361  and  _362
REMARK  149  A    between atoms: _361  and  _364
REMARK  150  A    between atoms: _367  and  _369
REMARK  151  A    between atoms: _369  and  _370
REMARK  152  A    between atoms: _369  and  _372
REMARK  153  A    between atoms: _372  and  _373
REMARK  154  A    between atoms: _376  and  _378
REMARK  155  A    between atoms: _378  and  _379
REMARK  156  A    between atoms: _378  and  _381
REMARK  157  A    between atoms: _381  and  _382
REMARK  158  A    between atoms: _382  and  _383
REMARK  159  A    between atoms: _386  and  _388
REMARK  160  A    between atoms: _388  and  _389
REMARK  161  A    between atoms: _388  and  _391
REMARK  162  A    between atoms: _391  and  _392
REMARK  163  A    between atoms: _392  and  _393
REMARK  164  A    between atoms: _393  and  _394
REMARK  165  A    between atoms: _394  and  _395
REMARK  166  A    between atoms: _399  and  _401
REMARK  167  A    between atoms: _401  and  _402
REMARK  168  A    between atoms: _401  and  _404
REMARK  169  A    between atoms: _404  and  _405
REMARK  170  A    between atoms: _405  and  _406
REMARK  171  A    between atoms: _408  and  _410
REMARK  172  A    between atoms: _410  and  _411
REMARK  173  A    between atoms: _410  and  _413
REMARK  174  A    between atoms: _413  and  _414
REMARK  175  A    between atoms: _417  and  _419
REMARK  176  A    between atoms: _419  and  _420
REMARK  177  A    between atoms: _419  and  _422
REMARK  178  A    between atoms: _425  and  _427
REMARK  179  A    between atoms: _427  and  _428
REMARK  180  A    between atoms: _430  and  _432
REMARK  181  A    between atoms: _432  and  _433
REMARK  182  A    between atoms: _432  and  _435
REMARK  183  A    between atoms: _435  and  _436
REMARK  184  A    between atoms: _439  and  _441
REMARK  185  A    between atoms: _441  and  _442
REMARK  186  A    between atoms: _444  and  _446
REMARK  187  A    between atoms: _446  and  _447
REMARK  188  A    between atoms: _449  and  _451
REMARK  189  A    between atoms: _451  and  _452
REMARK  190  A    between atoms: _451  and  _454
REMARK  191  A    between atoms: _457  and  _459
REMARK  192  A    between atoms: _459  and  _460
REMARK  193  A    between atoms: _459  and  _462
REMARK  194  A    between atoms: _465  and  _467
REMARK  195  A    between atoms: _467  and  _468
REMARK  196  A    between atoms: _467  and  _470
REMARK  197  A    between atoms: _470  and  _471
REMARK  198  A    between atoms: _475  and  _476
REMARK  199  A    between atoms: _481  and  _483
REMARK  200  A    between atoms: _483  and  _484
REMARK  201  A    between atoms: _483  and  _486
REMARK  202  A    between atoms: _486  and  _487
REMARK  203  A    between atoms: _491  and  _492
REMARK  204  A    between atoms: _497  and  _499
REMARK  205  A    between atoms: _499  and  _500
REMARK  206  A    between atoms: _503  and  _505
REMARK  207  A    between atoms: _505  and  _506
REMARK  208  A    between atoms: _505  and  _508
REMARK  209  A    between atoms: _508  and  _509
REMARK  210  A    between atoms: _514  and  _516
REMARK  211  A    between atoms: _516  and  _517
REMARK  212  A    between atoms: _516  and  _519
REMARK  213  A    between atoms: _519  and  _520
REMARK  214  A    between atoms: _523  and  _525
REMARK  215  A    between atoms: _525  and  _526
REMARK  216  A    between atoms: _525  and  _528
REMARK  217  A    between atoms: _528  and  _529
REMARK  218  A    between atoms: _532  and  _534
REMARK  219  A    between atoms: _534  and  _535
REMARK  220  A    between atoms: _537  and  _539
REMARK  221  A    between atoms: _539  and  _540
REMARK  222  A    between atoms: _539  and  _542
REMARK  223  A    between atoms: _542  and  _543
REMARK  224  A    between atoms: _543  and  _544
REMARK  225  A    between atoms: _544  and  _545
REMARK  226  A    between atoms: _554  and  _556
REMARK  227  A    between atoms: _556  and  _557
REMARK  228  A    between atoms: _556  and  _559
REMARK  229  A    between atoms: _559  and  _560
REMARK                            x       y       z     vdW  Elec       q    Type
REMARK                         _______ _______ _______ _____ _____    ______ ____
ROOT
ATOM      1  O   HOH     1       3.561 -25.011  34.444  0.00  0.00    +0.000 OA
ENDROOT
TORSDOF 0
REMARK  Name = ../refined-set-2016/3ekp/3ekp_pocket.pdb
REMARK  229 active torsions:
REMARK  status: ('A' for Active; 'I' for Inactive)
REMARK    1  A    between atoms: _1  and  _3
REMARK    2  A    between atoms: _3  and  _4
REMARK    3  A    between atoms: _3  and  _6
REMARK    4  A    between atoms: _6  and  _7
REMARK    5  A    between atoms: _7  and  _8
REMARK    6  A    between atoms: _8  and  _9
REMARK    7  A    between atoms: _18  and  _20
REMARK    8  A    between atoms: _20  and  _21
REMARK    9  A    between atoms: _20  and  _23
REMARK   10  A    between atoms: _23  and  _24
REMARK   11  A    between atoms: _27  and  _29
REMARK   12  A    between atoms: _29  and  _30
REMARK   13  A    between atoms: _29  and  _32
REMARK   14  A    between atoms: _32  and  _33
REMARK   15  A    between atoms: _36  and  _38
REMARK   16  A    between atoms: _38  and  _39
REMARK   17  A    between atoms: _38  and  _41
REMARK   18  A    between atoms: _41  and  _42
REMARK   19  A    between atoms: _45  and  _47
REMARK   20  A    between atoms: _47  and  _48
REMARK   21  A    between atoms: _47  and  _50
REMARK   22  A    between atoms: _50  and  _51
REMARK   23  A    between atoms: _54  and  _56
REMARK   24  A    between atoms: _56  and  _57
REMARK   25  A    between atoms: _59  and  _61
REMARK   26  A    between atoms: _61  and  _62
REMARK   27  A    between atoms: _65  and  _67
REMARK   28  A    between atoms: _67  and  _68
REMARK   29  A    between atoms: _67  and  _70
REMARK   30  A    between atoms: _70  and  _71
REMARK   31  A    between atoms: _74  and  _76
REMARK   32  A    between atoms: _76  and  _77
REMARK   33  A    between atoms: _76  and  _79
REMARK   34  A    between atoms: _79  and  _80
REMARK   35  A    between atoms: _83  and  _85
REMARK   36  A    between atoms: _85  and  _86
REMARK   37  A    between atoms: _85  and  _88
REMARK   38  A    between atoms: _88  and  _89
REMARK   39  A    between atoms: _92  and  _94
REMARK   40  A    between atoms: _94  and  _95
REMARK   41  A    between atoms: _94  and  _97
REMARK   42  A    between atoms: _100  and  _102
REMARK   43  A    between atoms: _102  and  _103
REMARK   44  A    between atoms: _102  and  _105
REMARK   45  A    between atoms: _105  and  _106
REMARK   46  A    between atoms: _109  and  _111
REMARK   47  A    between atoms: _111  and  _112
REMARK   48  A    between atoms: _111  and  _114
REMARK   49  A    between atoms: _114  and  _115
REMARK   50  A    between atoms: _115  and  _116
REMARK   51  A    between atoms: _118  and  _120
REMARK   52  A    between atoms: _120  and  _121
REMARK   53  A    between atoms: _120  and  _123
REMARK   54  A    between atoms: _123  and  _124
REMARK   55  A    between atoms: _127  and  _129
REMARK   56  A    between atoms: _129  and  _130
REMARK   57  A    between atoms: _129  and  _132
REMARK   58  A    between atoms: _135  and  _137
REMARK   59  A    between atoms: _137  and  _138
REMARK   60  A    between atoms: _140  and  _142
REMARK   61  A    between atoms: _142  and  _143
REMARK   62  A    between atoms: _142  and  _145
REMARK   63  A    between atoms: _145  and  _146
REMARK   64  A    between atoms: _149  and  _151
REMARK   65  A    between atoms: _151  and  _152
REMARK   66  A    between atoms: _154  and  _156
REMARK   67  A    between atoms: _156  and  _157
REMARK   68  A    between atoms: _159  and  _161
REMARK   69  A    between atoms: _161  and  _162
REMARK   70  A    between atoms: _161  and  _164
REMARK   71  A    between atoms: _167  and  _169
REMARK   72  A    between atoms: _169  and  _170
REMARK   73  A    between atoms: _169  and  _172
REMARK   74  A    between atoms: _175  and  _177
REMARK   75  A    between atoms: _177  and  _178
REMARK   76  A    between atoms: _177  and  _180
REMARK   77  A    between atoms: _180  and  _181
REMARK   78  A    between atoms: _184  and  _186
REMARK   79  A    between atoms: _186  and  _187
REMARK   80  A    between atoms: _186  and  _189
REMARK   81  A    between atoms: _189  and  _190
REMARK   82  A    between atoms: _194  and  _195
REMARK   83  A    between atoms: _200  and  _202
REMARK   84  A    between atoms: _202  and  _203
REMARK   85  A    between atoms: _206  and  _208
REMARK   86  A    between atoms: _208  and  _209
REMARK   87  A    between atoms: _208  and  _211
REMARK   88  A    between atoms: _211  and  _212
REMARK   89  A    between atoms: _217  and  _219
REMARK   90  A    between atoms: _219  and  _220
REMARK   91  A    between atoms: _219  and  _222
REMARK   92  A    between atoms: _222  and  _223
REMARK   93  A    between atoms: _226  and  _228
REMARK   94  A    between atoms: _228  and  _229
REMARK   95  A    between atoms: _228  and  _231
REMARK   96  A    between atoms: _231  and  _232
REMARK   97  A    between atoms: _235  and  _237
REMARK   98  A    between atoms: _237  and  _238
REMARK   99  A    between atoms: _240  and  _242
REMARK  100  A    between atoms: _242  and  _243
REMARK  101  A    between atoms: _242  and  _245
REMARK  102  A    between atoms: _245  and  _246
REMARK  103  A    between atoms: _246  and  _247
REMARK  104  A    between atoms: _247  and  _248
REMARK  105  A    between atoms: _257  and  _259
REMARK  106  A    between atoms: _259  and  _260
REMARK  107  A    between atoms: _259  and  _262
REMARK  108  A    between atoms: _262  and  _263
REMARK  109  A    between atoms: _268  and  _270
REMARK  110  A    between atoms: _270  and  _271
REMARK  111  A    between atoms: _270  and  _273
REMARK  112  A    between atoms: _273  and  _274
REMARK  113  A    between atoms: _274  and  _275
REMARK  114  A    between atoms: _275  and  _276
REMARK  115  A    between atoms: _285  and  _287
REMARK  116  A    between atoms: _287  and  _288
REMARK  117  A    between atoms: _287  and  _290
REMARK  118  A    between atoms: _290  and  _291
REMARK  119  A    between atoms: _294  and  _296
REMARK  120  A    between atoms: _296  and  _297
REMARK  121  A    between atoms: _296  and  _299
REMARK  122  A    between atoms: _299  and  _300
REMARK  123  A    between atoms: _303  and  _305
REMARK  124  A    between atoms: _305  and  _306
REMARK  125  A    between atoms: _305  and  _308
REMARK  126  A    between atoms: _308  and  _309
REMARK  127  A    between atoms: _312  and  _314
REMARK  128  A    between atoms: _314  and  _315
REMARK  129  A    between atoms: _314  and  _317
REMARK  130  A    between atoms: _317  and  _318
REMARK  131  A    between atoms: _321  and  _323
REMARK  132  A    between atoms: _323  and  _324
REMARK  133  A    between atoms: _326  and  _328
REMARK  134  A    between atoms: _328  and  _329
REMARK  135  A    between atoms: _332  and  _334
REMARK  136  A    between atoms: _334  and  _335
REMARK  137  A    between atoms: _334  and  _337
REMARK  138  A    between atoms: _337  and  _338
REMARK  139  A    between atoms: _341  and  _343
REMARK  140  A    between atoms: _343  and  _344
REMARK  141  A    between atoms: _343  and  _346
REMARK  142  A    between atoms: _346  and  _347
REMARK  143  A    between atoms: _350  and  _352
REMARK  144  A    between atoms: _352  and  _353
REMARK  145  A    between atoms: _352  and  _355
REMARK  146  A    between atoms: _355  and  _356
REMARK  147  A    between atoms: _359  and  _361
REMARK  148  A    between atoms: _361  and  _362
REMARK  149  A    between atoms: _361  and  _364
REMARK  150  A    between atoms: _367  and  _369
REMARK  151  A    between atoms: _369  and  _370
REMARK  152  A    between atoms: _369  and  _372
REMARK  153  A    between atoms: _372  and  _373
REMARK  154  A    between atoms: _376  and  _378
REMARK  155  A    between atoms: _378  and  _379
REMARK  156  A    between atoms: _378  and  _381
REMARK  157  A    between atoms: _381  and  _382
REMARK  158  A    between atoms: _382  and  _383
REMARK  159  A    between atoms: _386  and  _388
REMARK  160  A    between atoms: _388  and  _389
REMARK  161  A    between atoms: _388  and  _391
REMARK  162  A    between atoms: _391  and  _392
REMARK  163  A    between atoms: _392  and  _393
REMARK  164  A    between atoms: _393  and  _394
REMARK  165  A    between atoms: _394  and  _395
REMARK  166  A    between atoms: _399  and  _401
REMARK  167  A    between atoms: _401  and  _402
REMARK  168  A    between atoms: _401  and  _404
REMARK  169  A    between atoms: _404  and  _405
REMARK  170  A    between atoms: _405  and  _406
REMARK  171  A    between atoms: _408  and  _410
REMARK  172  A    between atoms: _410  and  _411
REMARK  173  A    between atoms: _410  and  _413
REMARK  174  A    between atoms: _413  and  _414
REMARK  175  A    between atoms: _417  and  _419
REMARK  176  A    between atoms: _419  and  _420
REMARK  177  A    between atoms: _419  and  _422
REMARK  178  A    between atoms: _425  and  _427
REMARK  179  A    between atoms: _427  and  _428
REMARK  180  A    between atoms: _430  and  _432
REMARK  181  A    between atoms: _432  and  _433
REMARK  182  A    between atoms: _432  and  _435
REMARK  183  A    between atoms: _435  and  _436
REMARK  184  A    between atoms: _439  and  _441
REMARK  185  A    between atoms: _441  and  _442
REMARK  186  A    between atoms: _444  and  _446
REMARK  187  A    between atoms: _446  and  _447
REMARK  188  A    between atoms: _449  and  _451
REMARK  189  A    between atoms: _451  and  _452
REMARK  190  A    between atoms: _451  and  _454
REMARK  191  A    between atoms: _457  and  _459
REMARK  192  A    between atoms: _459  and  _460
REMARK  193  A    between atoms: _459  and  _462
REMARK  194  A    between atoms: _465  and  _467
REMARK  195  A    between atoms: _467  and  _468
REMARK  196  A    between atoms: _467  and  _470
REMARK  197  A    between atoms: _470  and  _471
REMARK  198  A    between atoms: _475  and  _476
REMARK  199  A    between atoms: _481  and  _483
REMARK  200  A    between atoms: _483  and  _484
REMARK  201  A    between atoms: _483  and  _486
REMARK  202  A    between atoms: _486  and  _487
REMARK  203  A    between atoms: _491  and  _492
REMARK  204  A    between atoms: _497  and  _499
REMARK  205  A    between atoms: _499  and  _500
REMARK  206  A    between atoms: _503  and  _505
REMARK  207  A    between atoms: _505  and  _506
REMARK  208  A    between atoms: _505  and  _508
REMARK  209  A    between atoms: _508  and  _509
REMARK  210  A    between atoms: _514  and  _516
REMARK  211  A    between atoms: _516  and  _517
REMARK  212  A    between atoms: _516  and  _519
REMARK  213  A    between atoms: _519  and  _520
REMARK  214  A    between atoms: _523  and  _525
REMARK  215  A    between atoms: _525  and  _526
REMARK  216  A    between atoms: _525  and  _528
REMARK  217  A    between atoms: _528  and  _529
REMARK  218  A    between atoms: _532  and  _534
REMARK  219  A    between atoms: _534  and  _535
REMARK  220  A    between atoms: _537  and  _539
REMARK  221  A    between atoms: _539  and  _540
REMARK  222  A    between atoms: _539  and  _542
REMARK  223  A    between atoms: _542  and  _543
REMARK  224  A    between atoms: _543  and  _544
REMARK  225  A    between atoms: _544  and  _545
REMARK  226  A    between atoms: _554  and  _556
REMARK  227  A    between atoms: _556  and  _557
REMARK  228  A    between atoms: _556  and  _559
REMARK  229  A    between atoms: _559  and  _560
REMARK                            x       y       z     vdW  Elec       q    Type
REMARK                         _______ _______ _______ _____ _____    ______ ____
ROOT
ATOM      1  O   HOH     1      20.627 -23.340  38.054  0.00  0.00    +0.000 OA
ENDROOT
TORSDOF 0
REMARK  Name = ../refined-set-2016/3ekp/3ekp_pocket.pdb
REMARK  229 active torsions:
REMARK  status: ('A' for Active; 'I' for Inactive)
REMARK    1  A    between atoms: _1  and  _3
REMARK    2  A    between atoms: _3  and  _4
REMARK    3  A    between atoms: _3  and  _6
REMARK    4  A    between atoms: _6  and  _7
REMARK    5  A    between atoms: _7  and  _8
REMARK    6  A    between atoms: _8  and  _9
REMARK    7  A    between atoms: _18  and  _20
REMARK    8  A    between atoms: _20  and  _21
REMARK    9  A    between atoms: _20  and  _23
REMARK   10  A    between atoms: _23  and  _24
REMARK   11  A    between atoms: _27  and  _29
REMARK   12  A    between atoms: _29  and  _30
REMARK   13  A    between atoms: _29  and  _32
REMARK   14  A    between atoms: _32  and  _33
REMARK   15  A    between atoms: _36  and  _38
REMARK   16  A    between atoms: _38  and  _39
REMARK   17  A    between atoms: _38  and  _41
REMARK   18  A    between atoms: _41  and  _42
REMARK   19  A    between atoms: _45  and  _47
REMARK   20  A    between atoms: _47  and  _48
REMARK   21  A    between atoms: _47  and  _50
REMARK   22  A    between atoms: _50  and  _51
REMARK   23  A    between atoms: _54  and  _56
REMARK   24  A    between atoms: _56  and  _57
REMARK   25  A    between atoms: _59  and  _61
REMARK   26  A    between atoms: _61  and  _62
REMARK   27  A    between atoms: _65  and  _67
REMARK   28  A    between atoms: _67  and  _68
REMARK   29  A    between atoms: _67  and  _70
REMARK   30  A    between atoms: _70  and  _71
REMARK   31  A    between atoms: _74  and  _76
REMARK   32  A    between atoms: _76  and  _77
REMARK   33  A    between atoms: _76  and  _79
REMARK   34  A    between atoms: _79  and  _80
REMARK   35  A    between atoms: _83  and  _85
REMARK   36  A    between atoms: _85  and  _86
REMARK   37  A    between atoms: _85  and  _88
REMARK   38  A    between atoms: _88  and  _89
REMARK   39  A    between atoms: _92  and  _94
REMARK   40  A    between atoms: _94  and  _95
REMARK   41  A    between atoms: _94  and  _97
REMARK   42  A    between atoms: _100  and  _102
REMARK   43  A    between atoms: _102  and  _103
REMARK   44  A    between atoms: _102  and  _105
REMARK   45  A    between atoms: _105  and  _106
REMARK   46  A    between atoms: _109  and  _111
REMARK   47  A    between atoms: _111  and  _112
REMARK   48  A    between atoms: _111  and  _114
REMARK   49  A    between atoms: _114  and  _115
REMARK   50  A    between atoms: _115  and  _116
REMARK   51  A    between atoms: _118  and  _120
REMARK   52  A    between atoms: _120  and  _121
REMARK   53  A    between atoms: _120  and  _123
REMARK   54  A    between atoms: _123  and  _124
REMARK   55  A    between atoms: _127  and  _129
REMARK   56  A    between atoms: _129  and  _130
REMARK   57  A    between atoms: _129  and  _132
REMARK   58  A    between atoms: _135  and  _137
REMARK   59  A    between atoms: _137  and  _138
REMARK   60  A    between atoms: _140  and  _142
REMARK   61  A    between atoms: _142  and  _143
REMARK   62  A    between atoms: _142  and  _145
REMARK   63  A    between atoms: _145  and  _146
REMARK   64  A    between atoms: _149  and  _151
REMARK   65  A    between atoms: _151  and  _152
REMARK   66  A    between atoms: _154  and  _156
REMARK   67  A    between atoms: _156  and  _157
REMARK   68  A    between atoms: _159  and  _161
REMARK   69  A    between atoms: _161  and  _162
REMARK   70  A    between atoms: _161  and  _164
REMARK   71  A    between atoms: _167  and  _169
REMARK   72  A    between atoms: _169  and  _170
REMARK   73  A    between atoms: _169  and  _172
REMARK   74  A    between atoms: _175  and  _177
REMARK   75  A    between atoms: _177  and  _178
REMARK   76  A    between atoms: _177  and  _180
REMARK   77  A    between atoms: _180  and  _181
REMARK   78  A    between atoms: _184  and  _186
REMARK   79  A    between atoms: _186  and  _187
REMARK   80  A    between atoms: _186  and  _189
REMARK   81  A    between atoms: _189  and  _190
REMARK   82  A    between atoms: _194  and  _195
REMARK   83  A    between atoms: _200  and  _202
REMARK   84  A    between atoms: _202  and  _203
REMARK   85  A    between atoms: _206  and  _208
REMARK   86  A    between atoms: _208  and  _209
REMARK   87  A    between atoms: _208  and  _211
REMARK   88  A    between atoms: _211  and  _212
REMARK   89  A    between atoms: _217  and  _219
REMARK   90  A    between atoms: _219  and  _220
REMARK   91  A    between atoms: _219  and  _222
REMARK   92  A    between atoms: _222  and  _223
REMARK   93  A    between atoms: _226  and  _228
REMARK   94  A    between atoms: _228  and  _229
REMARK   95  A    between atoms: _228  and  _231
REMARK   96  A    between atoms: _231  and  _232
REMARK   97  A    between atoms: _235  and  _237
REMARK   98  A    between atoms: _237  and  _238
REMARK   99  A    between atoms: _240  and  _242
REMARK  100  A    between atoms: _242  and  _243
REMARK  101  A    between atoms: _242  and  _245
REMARK  102  A    between atoms: _245  and  _246
REMARK  103  A    between atoms: _246  and  _247
REMARK  104  A    between atoms: _247  and  _248
REMARK  105  A    between atoms: _257  and  _259
REMARK  106  A    between atoms: _259  and  _260
REMARK  107  A    between atoms: _259  and  _262
REMARK  108  A    between atoms: _262  and  _263
REMARK  109  A    between atoms: _268  and  _270
REMARK  110  A    between atoms: _270  and  _271
REMARK  111  A    between atoms: _270  and  _273
REMARK  112  A    between atoms: _273  and  _274
REMARK  113  A    between atoms: _274  and  _275
REMARK  114  A    between atoms: _275  and  _276
REMARK  115  A    between atoms: _285  and  _287
REMARK  116  A    between atoms: _287  and  _288
REMARK  117  A    between atoms: _287  and  _290
REMARK  118  A    between atoms: _290  and  _291
REMARK  119  A    between atoms: _294  and  _296
REMARK  120  A    between atoms: _296  and  _297
REMARK  121  A    between atoms: _296  and  _299
REMARK  122  A    between atoms: _299  and  _300
REMARK  123  A    between atoms: _303  and  _305
REMARK  124  A    between atoms: _305  and  _306
REMARK  125  A    between atoms: _305  and  _308
REMARK  126  A    between atoms: _308  and  _309
REMARK  127  A    between atoms: _312  and  _314
REMARK  128  A    between atoms: _314  and  _315
REMARK  129  A    between atoms: _314  and  _317
REMARK  130  A    between atoms: _317  and  _318
REMARK  131  A    between atoms: _321  and  _323
REMARK  132  A    between atoms: _323  and  _324
REMARK  133  A    between atoms: _326  and  _328
REMARK  134  A    between atoms: _328  and  _329
REMARK  135  A    between atoms: _332  and  _334
REMARK  136  A    between atoms: _334  and  _335
REMARK  137  A    between atoms: _334  and  _337
REMARK  138  A    between atoms: _337  and  _338
REMARK  139  A    between atoms: _341  and  _343
REMARK  140  A    between atoms: _343  and  _344
REMARK  141  A    between atoms: _343  and  _346
REMARK  142  A    between atoms: _346  and  _347
REMARK  143  A    between atoms: _350  and  _352
REMARK  144  A    between atoms: _352  and  _353
REMARK  145  A    between atoms: _352  and  _355
REMARK  146  A    between atoms: _355  and  _356
REMARK  147  A    between atoms: _359  and  _361
REMARK  148  A    between atoms: _361  and  _362
REMARK  149  A    between atoms: _361  and  _364
REMARK  150  A    between atoms: _367  and  _369
REMARK  151  A    between atoms: _369  and  _370
REMARK  152  A    between atoms: _369  and  _372
REMARK  153  A    between atoms: _372  and  _373
REMARK  154  A    between atoms: _376  and  _378
REMARK  155  A    between atoms: _378  and  _379
REMARK  156  A    between atoms: _378  and  _381
REMARK  157  A    between atoms: _381  and  _382
REMARK  158  A    between atoms: _382  and  _383
REMARK  159  A    between atoms: _386  and  _388
REMARK  160  A    between atoms: _388  and  _389
REMARK  161  A    between atoms: _388  and  _391
REMARK  162  A    between atoms: _391  and  _392
REMARK  163  A    between atoms: _392  and  _393
REMARK  164  A    between atoms: _393  and  _394
REMARK  165  A    between atoms: _394  and  _395
REMARK  166  A    between atoms: _399  and  _401
REMARK  167  A    between atoms: _401  and  _402
REMARK  168  A    between atoms: _401  and  _404
REMARK  169  A    between atoms: _404  and  _405
REMARK  170  A    between atoms: _405  and  _406
REMARK  171  A    between atoms: _408  and  _410
REMARK  172  A    between atoms: _410  and  _411
REMARK  173  A    between atoms: _410  and  _413
REMARK  174  A    between atoms: _413  and  _414
REMARK  175  A    between atoms: _417  and  _419
REMARK  176  A    between atoms: _419  and  _420
REMARK  177  A    between atoms: _419  and  _422
REMARK  178  A    between atoms: _425  and  _427
REMARK  179  A    between atoms: _427  and  _428
REMARK  180  A    between atoms: _430  and  _432
REMARK  181  A    between atoms: _432  and  _433
REMARK  182  A    between atoms: _432  and  _435
REMARK  183  A    between atoms: _435  and  _436
REMARK  184  A    between atoms: _439  and  _441
REMARK  185  A    between atoms: _441  and  _442
REMARK  186  A    between atoms: _444  and  _446
REMARK  187  A    between atoms: _446  and  _447
REMARK  188  A    between atoms: _449  and  _451
REMARK  189  A    between atoms: _451  and  _452
REMARK  190  A    between atoms: _451  and  _454
REMARK  191  A    between atoms: _457  and  _459
REMARK  192  A    between atoms: _459  and  _460
REMARK  193  A    between atoms: _459  and  _462
REMARK  194  A    between atoms: _465  and  _467
REMARK  195  A    between atoms: _467  and  _468
REMARK  196  A    between atoms: _467  and  _470
REMARK  197  A    between atoms: _470  and  _471
REMARK  198  A    between atoms: _475  and  _476
REMARK  199  A    between atoms: _481  and  _483
REMARK  200  A    between atoms: _483  and  _484
REMARK  201  A    between atoms: _483  and  _486
REMARK  202  A    between atoms: _486  and  _487
REMARK  203  A    between atoms: _491  and  _492
REMARK  204  A    between atoms: _497  and  _499
REMARK  205  A    between atoms: _499  and  _500
REMARK  206  A    between atoms: _503  and  _505
REMARK  207  A    between atoms: _505  and  _506
REMARK  208  A    between atoms: _505  and  _508
REMARK  209  A    between atoms: _508  and  _509
REMARK  210  A    between atoms: _514  and  _516
REMARK  211  A    between atoms: _516  and  _517
REMARK  212  A    between atoms: _516  and  _519
REMARK  213  A    between atoms: _519  and  _520
REMARK  214  A    between atoms: _523  and  _525
REMARK  215  A    between atoms: _525  and  _526
REMARK  216  A    between atoms: _525  and  _528
REMARK  217  A    between atoms: _528  and  _529
REMARK  218  A    between atoms: _532  and  _534
REMARK  219  A    between atoms: _534  and  _535
REMARK  220  A    between atoms: _537  and  _539
REMARK  221  A    between atoms: _539  and  _540
REMARK  222  A    between atoms: _539  and  _542
REMARK  223  A    between atoms: _542  and  _543
REMARK  224  A    between atoms: _543  and  _544
REMARK  225  A    between atoms: _544  and  _545
REMARK  226  A    between atoms: _554  and  _556
REMARK  227  A    between atoms: _556  and  _557
REMARK  228  A    between atoms: _556  and  _559
REMARK  229  A    between atoms: _559  and  _560
REMARK                            x       y       z     vdW  Elec       q    Type
REMARK                         _______ _______ _______ _____ _____    ______ ____
ROOT
ATOM      1  O   HOH     1      15.327 -22.540  48.431  0.00  0.00    +0.000 OA
ENDROOT
TORSDOF 0
REMARK  Name = ../refined-set-2016/3ekp/3ekp_pocket.pdb
REMARK  229 active torsions:
REMARK  status: ('A' for Active; 'I' for Inactive)
REMARK    1  A    between atoms: _1  and  _3
REMARK    2  A    between atoms: _3  and  _4
REMARK    3  A    between atoms: _3  and  _6
REMARK    4  A    between atoms: _6  and  _7
REMARK    5  A    between atoms: _7  and  _8
REMARK    6  A    between atoms: _8  and  _9
REMARK    7  A    between atoms: _18  and  _20
REMARK    8  A    between atoms: _20  and  _21
REMARK    9  A    between atoms: _20  and  _23
REMARK   10  A    between atoms: _23  and  _24
REMARK   11  A    between atoms: _27  and  _29
REMARK   12  A    between atoms: _29  and  _30
REMARK   13  A    between atoms: _29  and  _32
REMARK   14  A    between atoms: _32  and  _33
REMARK   15  A    between atoms: _36  and  _38
REMARK   16  A    between atoms: _38  and  _39
REMARK   17  A    between atoms: _38  and  _41
REMARK   18  A    between atoms: _41  and  _42
REMARK   19  A    between atoms: _45  and  _47
REMARK   20  A    between atoms: _47  and  _48
REMARK   21  A    between atoms: _47  and  _50
REMARK   22  A    between atoms: _50  and  _51
REMARK   23  A    between atoms: _54  and  _56
REMARK   24  A    between atoms: _56  and  _57
REMARK   25  A    between atoms: _59  and  _61
REMARK   26  A    between atoms: _61  and  _62
REMARK   27  A    between atoms: _65  and  _67
REMARK   28  A    between atoms: _67  and  _68
REMARK   29  A    between atoms: _67  and  _70
REMARK   30  A    between atoms: _70  and  _71
REMARK   31  A    between atoms: _74  and  _76
REMARK   32  A    between atoms: _76  and  _77
REMARK   33  A    between atoms: _76  and  _79
REMARK   34  A    between atoms: _79  and  _80
REMARK   35  A    between atoms: _83  and  _85
REMARK   36  A    between atoms: _85  and  _86
REMARK   37  A    between atoms: _85  and  _88
REMARK   38  A    between atoms: _88  and  _89
REMARK   39  A    between atoms: _92  and  _94
REMARK   40  A    between atoms: _94  and  _95
REMARK   41  A    between atoms: _94  and  _97
REMARK   42  A    between atoms: _100  and  _102
REMARK   43  A    between atoms: _102  and  _103
REMARK   44  A    between atoms: _102  and  _105
REMARK   45  A    between atoms: _105  and  _106
REMARK   46  A    between atoms: _109  and  _111
REMARK   47  A    between atoms: _111  and  _112
REMARK   48  A    between atoms: _111  and  _114
REMARK   49  A    between atoms: _114  and  _115
REMARK   50  A    between atoms: _115  and  _116
REMARK   51  A    between atoms: _118  and  _120
REMARK   52  A    between atoms: _120  and  _121
REMARK   53  A    between atoms: _120  and  _123
REMARK   54  A    between atoms: _123  and  _124
REMARK   55  A    between atoms: _127  and  _129
REMARK   56  A    between atoms: _129  and  _130
REMARK   57  A    between atoms: _129  and  _132
REMARK   58  A    between atoms: _135  and  _137
REMARK   59  A    between atoms: _137  and  _138
REMARK   60  A    between atoms: _140  and  _142
REMARK   61  A    between atoms: _142  and  _143
REMARK   62  A    between atoms: _142  and  _145
REMARK   63  A    between atoms: _145  and  _146
REMARK   64  A    between atoms: _149  and  _151
REMARK   65  A    between atoms: _151  and  _152
REMARK   66  A    between atoms: _154  and  _156
REMARK   67  A    between atoms: _156  and  _157
REMARK   68  A    between atoms: _159  and  _161
REMARK   69  A    between atoms: _161  and  _162
REMARK   70  A    between atoms: _161  and  _164
REMARK   71  A    between atoms: _167  and  _169
REMARK   72  A    between atoms: _169  and  _170
REMARK   73  A    between atoms: _169  and  _172
REMARK   74  A    between atoms: _175  and  _177
REMARK   75  A    between atoms: _177  and  _178
REMARK   76  A    between atoms: _177  and  _180
REMARK   77  A    between atoms: _180  and  _181
REMARK   78  A    between atoms: _184  and  _186
REMARK   79  A    between atoms: _186  and  _187
REMARK   80  A    between atoms: _186  and  _189
REMARK   81  A    between atoms: _189  and  _190
REMARK   82  A    between atoms: _194  and  _195
REMARK   83  A    between atoms: _200  and  _202
REMARK   84  A    between atoms: _202  and  _203
REMARK   85  A    between atoms: _206  and  _208
REMARK   86  A    between atoms: _208  and  _209
REMARK   87  A    between atoms: _208  and  _211
REMARK   88  A    between atoms: _211  and  _212
REMARK   89  A    between atoms: _217  and  _219
REMARK   90  A    between atoms: _219  and  _220
REMARK   91  A    between atoms: _219  and  _222
REMARK   92  A    between atoms: _222  and  _223
REMARK   93  A    between atoms: _226  and  _228
REMARK   94  A    between atoms: _228  and  _229
REMARK   95  A    between atoms: _228  and  _231
REMARK   96  A    between atoms: _231  and  _232
REMARK   97  A    between atoms: _235  and  _237
REMARK   98  A    between atoms: _237  and  _238
REMARK   99  A    between atoms: _240  and  _242
REMARK  100  A    between atoms: _242  and  _243
REMARK  101  A    between atoms: _242  and  _245
REMARK  102  A    between atoms: _245  and  _246
REMARK  103  A    between atoms: _246  and  _247
REMARK  104  A    between atoms: _247  and  _248
REMARK  105  A    between atoms: _257  and  _259
REMARK  106  A    between atoms: _259  and  _260
REMARK  107  A    between atoms: _259  and  _262
REMARK  108  A    between atoms: _262  and  _263
REMARK  109  A    between atoms: _268  and  _270
REMARK  110  A    between atoms: _270  and  _271
REMARK  111  A    between atoms: _270  and  _273
REMARK  112  A    between atoms: _273  and  _274
REMARK  113  A    between atoms: _274  and  _275
REMARK  114  A    between atoms: _275  and  _276
REMARK  115  A    between atoms: _285  and  _287
REMARK  116  A    between atoms: _287  and  _288
REMARK  117  A    between atoms: _287  and  _290
REMARK  118  A    between atoms: _290  and  _291
REMARK  119  A    between atoms: _294  and  _296
REMARK  120  A    between atoms: _296  and  _297
REMARK  121  A    between atoms: _296  and  _299
REMARK  122  A    between atoms: _299  and  _300
REMARK  123  A    between atoms: _303  and  _305
REMARK  124  A    between atoms: _305  and  _306
REMARK  125  A    between atoms: _305  and  _308
REMARK  126  A    between atoms: _308  and  _309
REMARK  127  A    between atoms: _312  and  _314
REMARK  128  A    between atoms: _314  and  _315
REMARK  129  A    between atoms: _314  and  _317
REMARK  130  A    between atoms: _317  and  _318
REMARK  131  A    between atoms: _321  and  _323
REMARK  132  A    between atoms: _323  and  _324
REMARK  133  A    between atoms: _326  and  _328
REMARK  134  A    between atoms: _328  and  _329
REMARK  135  A    between atoms: _332  and  _334
REMARK  136  A    between atoms: _334  and  _335
REMARK  137  A    between atoms: _334  and  _337
REMARK  138  A    between atoms: _337  and  _338
REMARK  139  A    between atoms: _341  and  _343
REMARK  140  A    between atoms: _343  and  _344
REMARK  141  A    between atoms: _343  and  _346
REMARK  142  A    between atoms: _346  and  _347
REMARK  143  A    between atoms: _350  and  _352
REMARK  144  A    between atoms: _352  and  _353
REMARK  145  A    between atoms: _352  and  _355
REMARK  146  A    between atoms: _355  and  _356
REMARK  147  A    between atoms: _359  and  _361
REMARK  148  A    between atoms: _361  and  _362
REMARK  149  A    between atoms: _361  and  _364
REMARK  150  A    between atoms: _367  and  _369
REMARK  151  A    between atoms: _369  and  _370
REMARK  152  A    between atoms: _369  and  _372
REMARK  153  A    between atoms: _372  and  _373
REMARK  154  A    between atoms: _376  and  _378
REMARK  155  A    between atoms: _378  and  _379
REMARK  156  A    between atoms: _378  and  _381
REMARK  157  A    between atoms: _381  and  _382
REMARK  158  A    between atoms: _382  and  _383
REMARK  159  A    between atoms: _386  and  _388
REMARK  160  A    between atoms: _388  and  _389
REMARK  161  A    between atoms: _388  and  _391
REMARK  162  A    between atoms: _391  and  _392
REMARK  163  A    between atoms: _392  and  _393
REMARK  164  A    between atoms: _393  and  _394
REMARK  165  A    between atoms: _394  and  _395
REMARK  166  A    between atoms: _399  and  _401
REMARK  167  A    between atoms: _401  and  _402
REMARK  168  A    between atoms: _401  and  _404
REMARK  169  A    between atoms: _404  and  _405
REMARK  170  A    between atoms: _405  and  _406
REMARK  171  A    between atoms: _408  and  _410
REMARK  172  A    between atoms: _410  and  _411
REMARK  173  A    between atoms: _410  and  _413
REMARK  174  A    between atoms: _413  and  _414
REMARK  175  A    between atoms: _417  and  _419
REMARK  176  A    between atoms: _419  and  _420
REMARK  177  A    between atoms: _419  and  _422
REMARK  178  A    between atoms: _425  and  _427
REMARK  179  A    between atoms: _427  and  _428
REMARK  180  A    between atoms: _430  and  _432
REMARK  181  A    between atoms: _432  and  _433
REMARK  182  A    between atoms: _432  and  _435
REMARK  183  A    between atoms: _435  and  _436
REMARK  184  A    between atoms: _439  and  _441
REMARK  185  A    between atoms: _441  and  _442
REMARK  186  A    between atoms: _444  and  _446
REMARK  187  A    between atoms: _446  and  _447
REMARK  188  A    between atoms: _449  and  _451
REMARK  189  A    between atoms: _451  and  _452
REMARK  190  A    between atoms: _451  and  _454
REMARK  191  A    between atoms: _457  and  _459
REMARK  192  A    between atoms: _459  and  _460
REMARK  193  A    between atoms: _459  and  _462
REMARK  194  A    between atoms: _465  and  _467
REMARK  195  A    between atoms: _467  and  _468
REMARK  196  A    between atoms: _467  and  _470
REMARK  197  A    between atoms: _470  and  _471
REMARK  198  A    between atoms: _475  and  _476
REMARK  199  A    between atoms: _481  and  _483
REMARK  200  A    between atoms: _483  and  _484
REMARK  201  A    between atoms: _483  and  _486
REMARK  202  A    between atoms: _486  and  _487
REMARK  203  A    between atoms: _491  and  _492
REMARK  204  A    between atoms: _497  and  _499
REMARK  205  A    between atoms: _499  and  _500
REMARK  206  A    between atoms: _503  and  _505
REMARK  207  A    between atoms: _505  and  _506
REMARK  208  A    between atoms: _505  and  _508
REMARK  209  A    between atoms: _508  and  _509
REMARK  210  A    between atoms: _514  and  _516
REMARK  211  A    between atoms: _516  and  _517
REMARK  212  A    between atoms: _516  and  _519
REMARK  213  A    between atoms: _519  and  _520
REMARK  214  A    between atoms: _523  and  _525
REMARK  215  A    between atoms: _525  and  _526
REMARK  216  A    between atoms: _525  and  _528
REMARK  217  A    between atoms: _528  and  _529
REMARK  218  A    between atoms: _532  and  _534
REMARK  219  A    between atoms: _534  and  _535
REMARK  220  A    between atoms: _537  and  _539
REMARK  221  A    between atoms: _539  and  _540
REMARK  222  A    between atoms: _539  and  _542
REMARK  223  A    between atoms: _542  and  _543
REMARK  224  A    between atoms: _543  and  _544
REMARK  225  A    between atoms: _544  and  _545
REMARK  226  A    between atoms: _554  and  _556
REMARK  227  A    between atoms: _556  and  _557
REMARK  228  A    between atoms: _556  and  _559
REMARK  229  A    between atoms: _559  and  _560
REMARK                            x       y       z     vdW  Elec       q    Type
REMARK                         _______ _______ _______ _____ _____    ______ ____
ROOT
ATOM      1  O   HOH     1      19.988 -20.638  37.660  0.00  0.00    +0.000 OA
ENDROOT
TORSDOF 0
REMARK  Name = ../refined-set-2016/3ekp/3ekp_pocket.pdb
REMARK  229 active torsions:
REMARK  status: ('A' for Active; 'I' for Inactive)
REMARK    1  A    between atoms: _1  and  _3
REMARK    2  A    between atoms: _3  and  _4
REMARK    3  A    between atoms: _3  and  _6
REMARK    4  A    between atoms: _6  and  _7
REMARK    5  A    between atoms: _7  and  _8
REMARK    6  A    between atoms: _8  and  _9
REMARK    7  A    between atoms: _18  and  _20
REMARK    8  A    between atoms: _20  and  _21
REMARK    9  A    between atoms: _20  and  _23
REMARK   10  A    between atoms: _23  and  _24
REMARK   11  A    between atoms: _27  and  _29
REMARK   12  A    between atoms: _29  and  _30
REMARK   13  A    between atoms: _29  and  _32
REMARK   14  A    between atoms: _32  and  _33
REMARK   15  A    between atoms: _36  and  _38
REMARK   16  A    between atoms: _38  and  _39
REMARK   17  A    between atoms: _38  and  _41
REMARK   18  A    between atoms: _41  and  _42
REMARK   19  A    between atoms: _45  and  _47
REMARK   20  A    between atoms: _47  and  _48
REMARK   21  A    between atoms: _47  and  _50
REMARK   22  A    between atoms: _50  and  _51
REMARK   23  A    between atoms: _54  and  _56
REMARK   24  A    between atoms: _56  and  _57
REMARK   25  A    between atoms: _59  and  _61
REMARK   26  A    between atoms: _61  and  _62
REMARK   27  A    between atoms: _65  and  _67
REMARK   28  A    between atoms: _67  and  _68
REMARK   29  A    between atoms: _67  and  _70
REMARK   30  A    between atoms: _70  and  _71
REMARK   31  A    between atoms: _74  and  _76
REMARK   32  A    between atoms: _76  and  _77
REMARK   33  A    between atoms: _76  and  _79
REMARK   34  A    between atoms: _79  and  _80
REMARK   35  A    between atoms: _83  and  _85
REMARK   36  A    between atoms: _85  and  _86
REMARK   37  A    between atoms: _85  and  _88
REMARK   38  A    between atoms: _88  and  _89
REMARK   39  A    between atoms: _92  and  _94
REMARK   40  A    between atoms: _94  and  _95
REMARK   41  A    between atoms: _94  and  _97
REMARK   42  A    between atoms: _100  and  _102
REMARK   43  A    between atoms: _102  and  _103
REMARK   44  A    between atoms: _102  and  _105
REMARK   45  A    between atoms: _105  and  _106
REMARK   46  A    between atoms: _109  and  _111
REMARK   47  A    between atoms: _111  and  _112
REMARK   48  A    between atoms: _111  and  _114
REMARK   49  A    between atoms: _114  and  _115
REMARK   50  A    between atoms: _115  and  _116
REMARK   51  A    between atoms: _118  and  _120
REMARK   52  A    between atoms: _120  and  _121
REMARK   53  A    between atoms: _120  and  _123
REMARK   54  A    between atoms: _123  and  _124
REMARK   55  A    between atoms: _127  and  _129
REMARK   56  A    between atoms: _129  and  _130
REMARK   57  A    between atoms: _129  and  _132
REMARK   58  A    between atoms: _135  and  _137
REMARK   59  A    between atoms: _137  and  _138
REMARK   60  A    between atoms: _140  and  _142
REMARK   61  A    between atoms: _142  and  _143
REMARK   62  A    between atoms: _142  and  _145
REMARK   63  A    between atoms: _145  and  _146
REMARK   64  A    between atoms: _149  and  _151
REMARK   65  A    between atoms: _151  and  _152
REMARK   66  A    between atoms: _154  and  _156
REMARK   67  A    between atoms: _156  and  _157
REMARK   68  A    between atoms: _159  and  _161
REMARK   69  A    between atoms: _161  and  _162
REMARK   70  A    between atoms: _161  and  _164
REMARK   71  A    between atoms: _167  and  _169
REMARK   72  A    between atoms: _169  and  _170
REMARK   73  A    between atoms: _169  and  _172
REMARK   74  A    between atoms: _175  and  _177
REMARK   75  A    between atoms: _177  and  _178
REMARK   76  A    between atoms: _177  and  _180
REMARK   77  A    between atoms: _180  and  _181
REMARK   78  A    between atoms: _184  and  _186
REMARK   79  A    between atoms: _186  and  _187
REMARK   80  A    between atoms: _186  and  _189
REMARK   81  A    between atoms: _189  and  _190
REMARK   82  A    between atoms: _194  and  _195
REMARK   83  A    between atoms: _200  and  _202
REMARK   84  A    between atoms: _202  and  _203
REMARK   85  A    between atoms: _206  and  _208
REMARK   86  A    between atoms: _208  and  _209
REMARK   87  A    between atoms: _208  and  _211
REMARK   88  A    between atoms: _211  and  _212
REMARK   89  A    between atoms: _217  and  _219
REMARK   90  A    between atoms: _219  and  _220
REMARK   91  A    between atoms: _219  and  _222
REMARK   92  A    between atoms: _222  and  _223
REMARK   93  A    between atoms: _226  and  _228
REMARK   94  A    between atoms: _228  and  _229
REMARK   95  A    between atoms: _228  and  _231
REMARK   96  A    between atoms: _231  and  _232
REMARK   97  A    between atoms: _235  and  _237
REMARK   98  A    between atoms: _237  and  _238
REMARK   99  A    between atoms: _240  and  _242
REMARK  100  A    between atoms: _242  and  _243
REMARK  101  A    between atoms: _242  and  _245
REMARK  102  A    between atoms: _245  and  _246
REMARK  103  A    between atoms: _246  and  _247
REMARK  104  A    between atoms: _247  and  _248
REMARK  105  A    between atoms: _257  and  _259
REMARK  106  A    between atoms: _259  and  _260
REMARK  107  A    between atoms: _259  and  _262
REMARK  108  A    between atoms: _262  and  _263
REMARK  109  A    between atoms: _268  and  _270
REMARK  110  A    between atoms: _270  and  _271
REMARK  111  A    between atoms: _270  and  _273
REMARK  112  A    between atoms: _273  and  _274
REMARK  113  A    between atoms: _274  and  _275
REMARK  114  A    between atoms: _275  and  _276
REMARK  115  A    between atoms: _285  and  _287
REMARK  116  A    between atoms: _287  and  _288
REMARK  117  A    between atoms: _287  and  _290
REMARK  118  A    between atoms: _290  and  _291
REMARK  119  A    between atoms: _294  and  _296
REMARK  120  A    between atoms: _296  and  _297
REMARK  121  A    between atoms: _296  and  _299
REMARK  122  A    between atoms: _299  and  _300
REMARK  123  A    between atoms: _303  and  _305
REMARK  124  A    between atoms: _305  and  _306
REMARK  125  A    between atoms: _305  and  _308
REMARK  126  A    between atoms: _308  and  _309
REMARK  127  A    between atoms: _312  and  _314
REMARK  128  A    between atoms: _314  and  _315
REMARK  129  A    between atoms: _314  and  _317
REMARK  130  A    between atoms: _317  and  _318
REMARK  131  A    between atoms: _321  and  _323
REMARK  132  A    between atoms: _323  and  _324
REMARK  133  A    between atoms: _326  and  _328
REMARK  134  A    between atoms: _328  and  _329
REMARK  135  A    between atoms: _332  and  _334
REMARK  136  A    between atoms: _334  and  _335
REMARK  137  A    between atoms: _334  and  _337
REMARK  138  A    between atoms: _337  and  _338
REMARK  139  A    between atoms: _341  and  _343
REMARK  140  A    between atoms: _343  and  _344
REMARK  141  A    between atoms: _343  and  _346
REMARK  142  A    between atoms: _346  and  _347
REMARK  143  A    between atoms: _350  and  _352
REMARK  144  A    between atoms: _352  and  _353
REMARK  145  A    between atoms: _352  and  _355
REMARK  146  A    between atoms: _355  and  _356
REMARK  147  A    between atoms: _359  and  _361
REMARK  148  A    between atoms: _361  and  _362
REMARK  149  A    between atoms: _361  and  _364
REMARK  150  A    between atoms: _367  and  _369
REMARK  151  A    between atoms: _369  and  _370
REMARK  152  A    between atoms: _369  and  _372
REMARK  153  A    between atoms: _372  and  _373
REMARK  154  A    between atoms: _376  and  _378
REMARK  155  A    between atoms: _378  and  _379
REMARK  156  A    between atoms: _378  and  _381
REMARK  157  A    between atoms: _381  and  _382
REMARK  158  A    between atoms: _382  and  _383
REMARK  159  A    between atoms: _386  and  _388
REMARK  160  A    between atoms: _388  and  _389
REMARK  161  A    between atoms: _388  and  _391
REMARK  162  A    between atoms: _391  and  _392
REMARK  163  A    between atoms: _392  and  _393
REMARK  164  A    between atoms: _393  and  _394
REMARK  165  A    between atoms: _394  and  _395
REMARK  166  A    between atoms: _399  and  _401
REMARK  167  A    between atoms: _401  and  _402
REMARK  168  A    between atoms: _401  and  _404
REMARK  169  A    between atoms: _404  and  _405
REMARK  170  A    between atoms: _405  and  _406
REMARK  171  A    between atoms: _408  and  _410
REMARK  172  A    between atoms: _410  and  _411
REMARK  173  A    between atoms: _410  and  _413
REMARK  174  A    between atoms: _413  and  _414
REMARK  175  A    between atoms: _417  and  _419
REMARK  176  A    between atoms: _419  and  _420
REMARK  177  A    between atoms: _419  and  _422
REMARK  178  A    between atoms: _425  and  _427
REMARK  179  A    between atoms: _427  and  _428
REMARK  180  A    between atoms: _430  and  _432
REMARK  181  A    between atoms: _432  and  _433
REMARK  182  A    between atoms: _432  and  _435
REMARK  183  A    between atoms: _435  and  _436
REMARK  184  A    between atoms: _439  and  _441
REMARK  185  A    between atoms: _441  and  _442
REMARK  186  A    between atoms: _444  and  _446
REMARK  187  A    between atoms: _446  and  _447
REMARK  188  A    between atoms: _449  and  _451
REMARK  189  A    between atoms: _451  and  _452
REMARK  190  A    between atoms: _451  and  _454
REMARK  191  A    between atoms: _457  and  _459
REMARK  192  A    between atoms: _459  and  _460
REMARK  193  A    between atoms: _459  and  _462
REMARK  194  A    between atoms: _465  and  _467
REMARK  195  A    between atoms: _467  and  _468
REMARK  196  A    between atoms: _467  and  _470
REMARK  197  A    between atoms: _470  and  _471
REMARK  198  A    between atoms: _475  and  _476
REMARK  199  A    between atoms: _481  and  _483
REMARK  200  A    between atoms: _483  and  _484
REMARK  201  A    between atoms: _483  and  _486
REMARK  202  A    between atoms: _486  and  _487
REMARK  203  A    between atoms: _491  and  _492
REMARK  204  A    between atoms: _497  and  _499
REMARK  205  A    between atoms: _499  and  _500
REMARK  206  A    between atoms: _503  and  _505
REMARK  207  A    between atoms: _505  and  _506
REMARK  208  A    between atoms: _505  and  _508
REMARK  209  A    between atoms: _508  and  _509
REMARK  210  A    between atoms: _514  and  _516
REMARK  211  A    between atoms: _516  and  _517
REMARK  212  A    between atoms: _516  and  _519
REMARK  213  A    between atoms: _519  and  _520
REMARK  214  A    between atoms: _523  and  _525
REMARK  215  A    between atoms: _525  and  _526
REMARK  216  A    between atoms: _525  and  _528
REMARK  217  A    between atoms: _528  and  _529
REMARK  218  A    between atoms: _532  and  _534
REMARK  219  A    between atoms: _534  and  _535
REMARK  220  A    between atoms: _537  and  _539
REMARK  221  A    between atoms: _539  and  _540
REMARK  222  A    between atoms: _539  and  _542
REMARK  223  A    between atoms: _542  and  _543
REMARK  224  A    between atoms: _543  and  _544
REMARK  225  A    between atoms: _544  and  _545
REMARK  226  A    between atoms: _554  and  _556
REMARK  227  A    between atoms: _556  and  _557
REMARK  228  A    between atoms: _556  and  _559
REMARK  229  A    between atoms: _559  and  _560
REMARK                            x       y       z     vdW  Elec       q    Type
REMARK                         _______ _______ _______ _____ _____    ______ ____
ROOT
ATOM      1  O   HOH     1      17.567 -19.876  39.142  0.00  0.00    +0.000 OA
ENDROOT
TORSDOF 0
REMARK  Name = ../refined-set-2016/3ekp/3ekp_pocket.pdb
REMARK  229 active torsions:
REMARK  status: ('A' for Active; 'I' for Inactive)
REMARK    1  A    between atoms: _1  and  _3
REMARK    2  A    between atoms: _3  and  _4
REMARK    3  A    between atoms: _3  and  _6
REMARK    4  A    between atoms: _6  and  _7
REMARK    5  A    between atoms: _7  and  _8
REMARK    6  A    between atoms: _8  and  _9
REMARK    7  A    between atoms: _18  and  _20
REMARK    8  A    between atoms: _20  and  _21
REMARK    9  A    between atoms: _20  and  _23
REMARK   10  A    between atoms: _23  and  _24
REMARK   11  A    between atoms: _27  and  _29
REMARK   12  A    between atoms: _29  and  _30
REMARK   13  A    between atoms: _29  and  _32
REMARK   14  A    between atoms: _32  and  _33
REMARK   15  A    between atoms: _36  and  _38
REMARK   16  A    between atoms: _38  and  _39
REMARK   17  A    between atoms: _38  and  _41
REMARK   18  A    between atoms: _41  and  _42
REMARK   19  A    between atoms: _45  and  _47
REMARK   20  A    between atoms: _47  and  _48
REMARK   21  A    between atoms: _47  and  _50
REMARK   22  A    between atoms: _50  and  _51
REMARK   23  A    between atoms: _54  and  _56
REMARK   24  A    between atoms: _56  and  _57
REMARK   25  A    between atoms: _59  and  _61
REMARK   26  A    between atoms: _61  and  _62
REMARK   27  A    between atoms: _65  and  _67
REMARK   28  A    between atoms: _67  and  _68
REMARK   29  A    between atoms: _67  and  _70
REMARK   30  A    between atoms: _70  and  _71
REMARK   31  A    between atoms: _74  and  _76
REMARK   32  A    between atoms: _76  and  _77
REMARK   33  A    between atoms: _76  and  _79
REMARK   34  A    between atoms: _79  and  _80
REMARK   35  A    between atoms: _83  and  _85
REMARK   36  A    between atoms: _85  and  _86
REMARK   37  A    between atoms: _85  and  _88
REMARK   38  A    between atoms: _88  and  _89
REMARK   39  A    between atoms: _92  and  _94
REMARK   40  A    between atoms: _94  and  _95
REMARK   41  A    between atoms: _94  and  _97
REMARK   42  A    between atoms: _100  and  _102
REMARK   43  A    between atoms: _102  and  _103
REMARK   44  A    between atoms: _102  and  _105
REMARK   45  A    between atoms: _105  and  _106
REMARK   46  A    between atoms: _109  and  _111
REMARK   47  A    between atoms: _111  and  _112
REMARK   48  A    between atoms: _111  and  _114
REMARK   49  A    between atoms: _114  and  _115
REMARK   50  A    between atoms: _115  and  _116
REMARK   51  A    between atoms: _118  and  _120
REMARK   52  A    between atoms: _120  and  _121
REMARK   53  A    between atoms: _120  and  _123
REMARK   54  A    between atoms: _123  and  _124
REMARK   55  A    between atoms: _127  and  _129
REMARK   56  A    between atoms: _129  and  _130
REMARK   57  A    between atoms: _129  and  _132
REMARK   58  A    between atoms: _135  and  _137
REMARK   59  A    between atoms: _137  and  _138
REMARK   60  A    between atoms: _140  and  _142
REMARK   61  A    between atoms: _142  and  _143
REMARK   62  A    between atoms: _142  and  _145
REMARK   63  A    between atoms: _145  and  _146
REMARK   64  A    between atoms: _149  and  _151
REMARK   65  A    between atoms: _151  and  _152
REMARK   66  A    between atoms: _154  and  _156
REMARK   67  A    between atoms: _156  and  _157
REMARK   68  A    between atoms: _159  and  _161
REMARK   69  A    between atoms: _161  and  _162
REMARK   70  A    between atoms: _161  and  _164
REMARK   71  A    between atoms: _167  and  _169
REMARK   72  A    between atoms: _169  and  _170
REMARK   73  A    between atoms: _169  and  _172
REMARK   74  A    between atoms: _175  and  _177
REMARK   75  A    between atoms: _177  and  _178
REMARK   76  A    between atoms: _177  and  _180
REMARK   77  A    between atoms: _180  and  _181
REMARK   78  A    between atoms: _184  and  _186
REMARK   79  A    between atoms: _186  and  _187
REMARK   80  A    between atoms: _186  and  _189
REMARK   81  A    between atoms: _189  and  _190
REMARK   82  A    between atoms: _194  and  _195
REMARK   83  A    between atoms: _200  and  _202
REMARK   84  A    between atoms: _202  and  _203
REMARK   85  A    between atoms: _206  and  _208
REMARK   86  A    between atoms: _208  and  _209
REMARK   87  A    between atoms: _208  and  _211
REMARK   88  A    between atoms: _211  and  _212
REMARK   89  A    between atoms: _217  and  _219
REMARK   90  A    between atoms: _219  and  _220
REMARK   91  A    between atoms: _219  and  _222
REMARK   92  A    between atoms: _222  and  _223
REMARK   93  A    between atoms: _226  and  _228
REMARK   94  A    between atoms: _228  and  _229
REMARK   95  A    between atoms: _228  and  _231
REMARK   96  A    between atoms: _231  and  _232
REMARK   97  A    between atoms: _235  and  _237
REMARK   98  A    between atoms: _237  and  _238
REMARK   99  A    between atoms: _240  and  _242
REMARK  100  A    between atoms: _242  and  _243
REMARK  101  A    between atoms: _242  and  _245
REMARK  102  A    between atoms: _245  and  _246
REMARK  103  A    between atoms: _246  and  _247
REMARK  104  A    between atoms: _247  and  _248
REMARK  105  A    between atoms: _257  and  _259
REMARK  106  A    between atoms: _259  and  _260
REMARK  107  A    between atoms: _259  and  _262
REMARK  108  A    between atoms: _262  and  _263
REMARK  109  A    between atoms: _268  and  _270
REMARK  110  A    between atoms: _270  and  _271
REMARK  111  A    between atoms: _270  and  _273
REMARK  112  A    between atoms: _273  and  _274
REMARK  113  A    between atoms: _274  and  _275
REMARK  114  A    between atoms: _275  and  _276
REMARK  115  A    between atoms: _285  and  _287
REMARK  116  A    between atoms: _287  and  _288
REMARK  117  A    between atoms: _287  and  _290
REMARK  118  A    between atoms: _290  and  _291
REMARK  119  A    between atoms: _294  and  _296
REMARK  120  A    between atoms: _296  and  _297
REMARK  121  A    between atoms: _296  and  _299
REMARK  122  A    between atoms: _299  and  _300
REMARK  123  A    between atoms: _303  and  _305
REMARK  124  A    between atoms: _305  and  _306
REMARK  125  A    between atoms: _305  and  _308
REMARK  126  A    between atoms: _308  and  _309
REMARK  127  A    between atoms: _312  and  _314
REMARK  128  A    between atoms: _314  and  _315
REMARK  129  A    between atoms: _314  and  _317
REMARK  130  A    between atoms: _317  and  _318
REMARK  131  A    between atoms: _321  and  _323
REMARK  132  A    between atoms: _323  and  _324
REMARK  133  A    between atoms: _326  and  _328
REMARK  134  A    between atoms: _328  and  _329
REMARK  135  A    between atoms: _332  and  _334
REMARK  136  A    between atoms: _334  and  _335
REMARK  137  A    between atoms: _334  and  _337
REMARK  138  A    between atoms: _337  and  _338
REMARK  139  A    between atoms: _341  and  _343
REMARK  140  A    between atoms: _343  and  _344
REMARK  141  A    between atoms: _343  and  _346
REMARK  142  A    between atoms: _346  and  _347
REMARK  143  A    between atoms: _350  and  _352
REMARK  144  A    between atoms: _352  and  _353
REMARK  145  A    between atoms: _352  and  _355
REMARK  146  A    between atoms: _355  and  _356
REMARK  147  A    between atoms: _359  and  _361
REMARK  148  A    between atoms: _361  and  _362
REMARK  149  A    between atoms: _361  and  _364
REMARK  150  A    between atoms: _367  and  _369
REMARK  151  A    between atoms: _369  and  _370
REMARK  152  A    between atoms: _369  and  _372
REMARK  153  A    between atoms: _372  and  _373
REMARK  154  A    between atoms: _376  and  _378
REMARK  155  A    between atoms: _378  and  _379
REMARK  156  A    between atoms: _378  and  _381
REMARK  157  A    between atoms: _381  and  _382
REMARK  158  A    between atoms: _382  and  _383
REMARK  159  A    between atoms: _386  and  _388
REMARK  160  A    between atoms: _388  and  _389
REMARK  161  A    between atoms: _388  and  _391
REMARK  162  A    between atoms: _391  and  _392
REMARK  163  A    between atoms: _392  and  _393
REMARK  164  A    between atoms: _393  and  _394
REMARK  165  A    between atoms: _394  and  _395
REMARK  166  A    between atoms: _399  and  _401
REMARK  167  A    between atoms: _401  and  _402
REMARK  168  A    between atoms: _401  and  _404
REMARK  169  A    between atoms: _404  and  _405
REMARK  170  A    between atoms: _405  and  _406
REMARK  171  A    between atoms: _408  and  _410
REMARK  172  A    between atoms: _410  and  _411
REMARK  173  A    between atoms: _410  and  _413
REMARK  174  A    between atoms: _413  and  _414
REMARK  175  A    between atoms: _417  and  _419
REMARK  176  A    between atoms: _419  and  _420
REMARK  177  A    between atoms: _419  and  _422
REMARK  178  A    between atoms: _425  and  _427
REMARK  179  A    between atoms: _427  and  _428
REMARK  180  A    between atoms: _430  and  _432
REMARK  181  A    between atoms: _432  and  _433
REMARK  182  A    between atoms: _432  and  _435
REMARK  183  A    between atoms: _435  and  _436
REMARK  184  A    between atoms: _439  and  _441
REMARK  185  A    between atoms: _441  and  _442
REMARK  186  A    between atoms: _444  and  _446
REMARK  187  A    between atoms: _446  and  _447
REMARK  188  A    between atoms: _449  and  _451
REMARK  189  A    between atoms: _451  and  _452
REMARK  190  A    between atoms: _451  and  _454
REMARK  191  A    between atoms: _457  and  _459
REMARK  192  A    between atoms: _459  and  _460
REMARK  193  A    between atoms: _459  and  _462
REMARK  194  A    between atoms: _465  and  _467
REMARK  195  A    between atoms: _467  and  _468
REMARK  196  A    between atoms: _467  and  _470
REMARK  197  A    between atoms: _470  and  _471
REMARK  198  A    between atoms: _475  and  _476
REMARK  199  A    between atoms: _481  and  _483
REMARK  200  A    between atoms: _483  and  _484
REMARK  201  A    between atoms: _483  and  _486
REMARK  202  A    between atoms: _486  and  _487
REMARK  203  A    between atoms: _491  and  _492
REMARK  204  A    between atoms: _497  and  _499
REMARK  205  A    between atoms: _499  and  _500
REMARK  206  A    between atoms: _503  and  _505
REMARK  207  A    between atoms: _505  and  _506
REMARK  208  A    between atoms: _505  and  _508
REMARK  209  A    between atoms: _508  and  _509
REMARK  210  A    between atoms: _514  and  _516
REMARK  211  A    between atoms: _516  and  _517
REMARK  212  A    between atoms: _516  and  _519
REMARK  213  A    between atoms: _519  and  _520
REMARK  214  A    between atoms: _523  and  _525
REMARK  215  A    between atoms: _525  and  _526
REMARK  216  A    between atoms: _525  and  _528
REMARK  217  A    between atoms: _528  and  _529
REMARK  218  A    between atoms: _532  and  _534
REMARK  219  A    between atoms: _534  and  _535
REMARK  220  A    between atoms: _537  and  _539
REMARK  221  A    between atoms: _539  and  _540
REMARK  222  A    between atoms: _539  and  _542
REMARK  223  A    between atoms: _542  and  _543
REMARK  224  A    between atoms: _543  and  _544
REMARK  225  A    between atoms: _544  and  _545
REMARK  226  A    between atoms: _554  and  _556
REMARK  227  A    between atoms: _556  and  _557
REMARK  228  A    between atoms: _556  and  _559
REMARK  229  A    between atoms: _559  and  _560
REMARK                            x       y       z     vdW  Elec       q    Type
REMARK                         _______ _______ _______ _____ _____    ______ ____
ROOT
ATOM      1  O   HOH     1      20.339 -17.154  43.527  0.00  0.00    +0.000 OA
ENDROOT
TORSDOF 0
REMARK  Name = ../refined-set-2016/3ekp/3ekp_pocket.pdb
REMARK  229 active torsions:
REMARK  status: ('A' for Active; 'I' for Inactive)
REMARK    1  A    between atoms: _1  and  _3
REMARK    2  A    between atoms: _3  and  _4
REMARK    3  A    between atoms: _3  and  _6
REMARK    4  A    between atoms: _6  and  _7
REMARK    5  A    between atoms: _7  and  _8
REMARK    6  A    between atoms: _8  and  _9
REMARK    7  A    between atoms: _18  and  _20
REMARK    8  A    between atoms: _20  and  _21
REMARK    9  A    between atoms: _20  and  _23
REMARK   10  A    between atoms: _23  and  _24
REMARK   11  A    between atoms: _27  and  _29
REMARK   12  A    between atoms: _29  and  _30
REMARK   13  A    between atoms: _29  and  _32
REMARK   14  A    between atoms: _32  and  _33
REMARK   15  A    between atoms: _36  and  _38
REMARK   16  A    between atoms: _38  and  _39
REMARK   17  A    between atoms: _38  and  _41
REMARK   18  A    between atoms: _41  and  _42
REMARK   19  A    between atoms: _45  and  _47
REMARK   20  A    between atoms: _47  and  _48
REMARK   21  A    between atoms: _47  and  _50
REMARK   22  A    between atoms: _50  and  _51
REMARK   23  A    between atoms: _54  and  _56
REMARK   24  A    between atoms: _56  and  _57
REMARK   25  A    between atoms: _59  and  _61
REMARK   26  A    between atoms: _61  and  _62
REMARK   27  A    between atoms: _65  and  _67
REMARK   28  A    between atoms: _67  and  _68
REMARK   29  A    between atoms: _67  and  _70
REMARK   30  A    between atoms: _70  and  _71
REMARK   31  A    between atoms: _74  and  _76
REMARK   32  A    between atoms: _76  and  _77
REMARK   33  A    between atoms: _76  and  _79
REMARK   34  A    between atoms: _79  and  _80
REMARK   35  A    between atoms: _83  and  _85
REMARK   36  A    between atoms: _85  and  _86
REMARK   37  A    between atoms: _85  and  _88
REMARK   38  A    between atoms: _88  and  _89
REMARK   39  A    between atoms: _92  and  _94
REMARK   40  A    between atoms: _94  and  _95
REMARK   41  A    between atoms: _94  and  _97
REMARK   42  A    between atoms: _100  and  _102
REMARK   43  A    between atoms: _102  and  _103
REMARK   44  A    between atoms: _102  and  _105
REMARK   45  A    between atoms: _105  and  _106
REMARK   46  A    between atoms: _109  and  _111
REMARK   47  A    between atoms: _111  and  _112
REMARK   48  A    between atoms: _111  and  _114
REMARK   49  A    between atoms: _114  and  _115
REMARK   50  A    between atoms: _115  and  _116
REMARK   51  A    between atoms: _118  and  _120
REMARK   52  A    between atoms: _120  and  _121
REMARK   53  A    between atoms: _120  and  _123
REMARK   54  A    between atoms: _123  and  _124
REMARK   55  A    between atoms: _127  and  _129
REMARK   56  A    between atoms: _129  and  _130
REMARK   57  A    between atoms: _129  and  _132
REMARK   58  A    between atoms: _135  and  _137
REMARK   59  A    between atoms: _137  and  _138
REMARK   60  A    between atoms: _140  and  _142
REMARK   61  A    between atoms: _142  and  _143
REMARK   62  A    between atoms: _142  and  _145
REMARK   63  A    between atoms: _145  and  _146
REMARK   64  A    between atoms: _149  and  _151
REMARK   65  A    between atoms: _151  and  _152
REMARK   66  A    between atoms: _154  and  _156
REMARK   67  A    between atoms: _156  and  _157
REMARK   68  A    between atoms: _159  and  _161
REMARK   69  A    between atoms: _161  and  _162
REMARK   70  A    between atoms: _161  and  _164
REMARK   71  A    between atoms: _167  and  _169
REMARK   72  A    between atoms: _169  and  _170
REMARK   73  A    between atoms: _169  and  _172
REMARK   74  A    between atoms: _175  and  _177
REMARK   75  A    between atoms: _177  and  _178
REMARK   76  A    between atoms: _177  and  _180
REMARK   77  A    between atoms: _180  and  _181
REMARK   78  A    between atoms: _184  and  _186
REMARK   79  A    between atoms: _186  and  _187
REMARK   80  A    between atoms: _186  and  _189
REMARK   81  A    between atoms: _189  and  _190
REMARK   82  A    between atoms: _194  and  _195
REMARK   83  A    between atoms: _200  and  _202
REMARK   84  A    between atoms: _202  and  _203
REMARK   85  A    between atoms: _206  and  _208
REMARK   86  A    between atoms: _208  and  _209
REMARK   87  A    between atoms: _208  and  _211
REMARK   88  A    between atoms: _211  and  _212
REMARK   89  A    between atoms: _217  and  _219
REMARK   90  A    between atoms: _219  and  _220
REMARK   91  A    between atoms: _219  and  _222
REMARK   92  A    between atoms: _222  and  _223
REMARK   93  A    between atoms: _226  and  _228
REMARK   94  A    between atoms: _228  and  _229
REMARK   95  A    between atoms: _228  and  _231
REMARK   96  A    between atoms: _231  and  _232
REMARK   97  A    between atoms: _235  and  _237
REMARK   98  A    between atoms: _237  and  _238
REMARK   99  A    between atoms: _240  and  _242
REMARK  100  A    between atoms: _242  and  _243
REMARK  101  A    between atoms: _242  and  _245
REMARK  102  A    between atoms: _245  and  _246
REMARK  103  A    between atoms: _246  and  _247
REMARK  104  A    between atoms: _247  and  _248
REMARK  105  A    between atoms: _257  and  _259
REMARK  106  A    between atoms: _259  and  _260
REMARK  107  A    between atoms: _259  and  _262
REMARK  108  A    between atoms: _262  and  _263
REMARK  109  A    between atoms: _268  and  _270
REMARK  110  A    between atoms: _270  and  _271
REMARK  111  A    between atoms: _270  and  _273
REMARK  112  A    between atoms: _273  and  _274
REMARK  113  A    between atoms: _274  and  _275
REMARK  114  A    between atoms: _275  and  _276
REMARK  115  A    between atoms: _285  and  _287
REMARK  116  A    between atoms: _287  and  _288
REMARK  117  A    between atoms: _287  and  _290
REMARK  118  A    between atoms: _290  and  _291
REMARK  119  A    between atoms: _294  and  _296
REMARK  120  A    between atoms: _296  and  _297
REMARK  121  A    between atoms: _296  and  _299
REMARK  122  A    between atoms: _299  and  _300
REMARK  123  A    between atoms: _303  and  _305
REMARK  124  A    between atoms: _305  and  _306
REMARK  125  A    between atoms: _305  and  _308
REMARK  126  A    between atoms: _308  and  _309
REMARK  127  A    between atoms: _312  and  _314
REMARK  128  A    between atoms: _314  and  _315
REMARK  129  A    between atoms: _314  and  _317
REMARK  130  A    between atoms: _317  and  _318
REMARK  131  A    between atoms: _321  and  _323
REMARK  132  A    between atoms: _323  and  _324
REMARK  133  A    between atoms: _326  and  _328
REMARK  134  A    between atoms: _328  and  _329
REMARK  135  A    between atoms: _332  and  _334
REMARK  136  A    between atoms: _334  and  _335
REMARK  137  A    between atoms: _334  and  _337
REMARK  138  A    between atoms: _337  and  _338
REMARK  139  A    between atoms: _341  and  _343
REMARK  140  A    between atoms: _343  and  _344
REMARK  141  A    between atoms: _343  and  _346
REMARK  142  A    between atoms: _346  and  _347
REMARK  143  A    between atoms: _350  and  _352
REMARK  144  A    between atoms: _352  and  _353
REMARK  145  A    between atoms: _352  and  _355
REMARK  146  A    between atoms: _355  and  _356
REMARK  147  A    between atoms: _359  and  _361
REMARK  148  A    between atoms: _361  and  _362
REMARK  149  A    between atoms: _361  and  _364
REMARK  150  A    between atoms: _367  and  _369
REMARK  151  A    between atoms: _369  and  _370
REMARK  152  A    between atoms: _369  and  _372
REMARK  153  A    between atoms: _372  and  _373
REMARK  154  A    between atoms: _376  and  _378
REMARK  155  A    between atoms: _378  and  _379
REMARK  156  A    between atoms: _378  and  _381
REMARK  157  A    between atoms: _381  and  _382
REMARK  158  A    between atoms: _382  and  _383
REMARK  159  A    between atoms: _386  and  _388
REMARK  160  A    between atoms: _388  and  _389
REMARK  161  A    between atoms: _388  and  _391
REMARK  162  A    between atoms: _391  and  _392
REMARK  163  A    between atoms: _392  and  _393
REMARK  164  A    between atoms: _393  and  _394
REMARK  165  A    between atoms: _394  and  _395
REMARK  166  A    between atoms: _399  and  _401
REMARK  167  A    between atoms: _401  and  _402
REMARK  168  A    between atoms: _401  and  _404
REMARK  169  A    between atoms: _404  and  _405
REMARK  170  A    between atoms: _405  and  _406
REMARK  171  A    between atoms: _408  and  _410
REMARK  172  A    between atoms: _410  and  _411
REMARK  173  A    between atoms: _410  and  _413
REMARK  174  A    between atoms: _413  and  _414
REMARK  175  A    between atoms: _417  and  _419
REMARK  176  A    between atoms: _419  and  _420
REMARK  177  A    between atoms: _419  and  _422
REMARK  178  A    between atoms: _425  and  _427
REMARK  179  A    between atoms: _427  and  _428
REMARK  180  A    between atoms: _430  and  _432
REMARK  181  A    between atoms: _432  and  _433
REMARK  182  A    between atoms: _432  and  _435
REMARK  183  A    between atoms: _435  and  _436
REMARK  184  A    between atoms: _439  and  _441
REMARK  185  A    between atoms: _441  and  _442
REMARK  186  A    between atoms: _444  and  _446
REMARK  187  A    between atoms: _446  and  _447
REMARK  188  A    between atoms: _449  and  _451
REMARK  189  A    between atoms: _451  and  _452
REMARK  190  A    between atoms: _451  and  _454
REMARK  191  A    between atoms: _457  and  _459
REMARK  192  A    between atoms: _459  and  _460
REMARK  193  A    between atoms: _459  and  _462
REMARK  194  A    between atoms: _465  and  _467
REMARK  195  A    between atoms: _467  and  _468
REMARK  196  A    between atoms: _467  and  _470
REMARK  197  A    between atoms: _470  and  _471
REMARK  198  A    between atoms: _475  and  _476
REMARK  199  A    between atoms: _481  and  _483
REMARK  200  A    between atoms: _483  and  _484
REMARK  201  A    between atoms: _483  and  _486
REMARK  202  A    between atoms: _486  and  _487
REMARK  203  A    between atoms: _491  and  _492
REMARK  204  A    between atoms: _497  and  _499
REMARK  205  A    between atoms: _499  and  _500
REMARK  206  A    between atoms: _503  and  _505
REMARK  207  A    between atoms: _505  and  _506
REMARK  208  A    between atoms: _505  and  _508
REMARK  209  A    between atoms: _508  and  _509
REMARK  210  A    between atoms: _514  and  _516
REMARK  211  A    between atoms: _516  and  _517
REMARK  212  A    between atoms: _516  and  _519
REMARK  213  A    between atoms: _519  and  _520
REMARK  214  A    between atoms: _523  and  _525
REMARK  215  A    between atoms: _525  and  _526
REMARK  216  A    between atoms: _525  and  _528
REMARK  217  A    between atoms: _528  and  _529
REMARK  218  A    between atoms: _532  and  _534
REMARK  219  A    between atoms: _534  and  _535
REMARK  220  A    between atoms: _537  and  _539
REMARK  221  A    between atoms: _539  and  _540
REMARK  222  A    between atoms: _539  and  _542
REMARK  223  A    between atoms: _542  and  _543
REMARK  224  A    between atoms: _543  and  _544
REMARK  225  A    between atoms: _544  and  _545
REMARK  226  A    between atoms: _554  and  _556
REMARK  227  A    between atoms: _556  and  _557
REMARK  228  A    between atoms: _556  and  _559
REMARK  229  A    between atoms: _559  and  _560
REMARK                            x       y       z     vdW  Elec       q    Type
REMARK                         _______ _______ _______ _____ _____    ______ ____
ROOT
ATOM      1  O   HOH     1      21.761 -23.239  44.927  0.00  0.00    +0.000 OA
ENDROOT
TORSDOF 0
REMARK  Name = ../refined-set-2016/3ekp/3ekp_pocket.pdb
REMARK  229 active torsions:
REMARK  status: ('A' for Active; 'I' for Inactive)
REMARK    1  A    between atoms: _1  and  _3
REMARK    2  A    between atoms: _3  and  _4
REMARK    3  A    between atoms: _3  and  _6
REMARK    4  A    between atoms: _6  and  _7
REMARK    5  A    between atoms: _7  and  _8
REMARK    6  A    between atoms: _8  and  _9
REMARK    7  A    between atoms: _18  and  _20
REMARK    8  A    between atoms: _20  and  _21
REMARK    9  A    between atoms: _20  and  _23
REMARK   10  A    between atoms: _23  and  _24
REMARK   11  A    between atoms: _27  and  _29
REMARK   12  A    between atoms: _29  and  _30
REMARK   13  A    between atoms: _29  and  _32
REMARK   14  A    between atoms: _32  and  _33
REMARK   15  A    between atoms: _36  and  _38
REMARK   16  A    between atoms: _38  and  _39
REMARK   17  A    between atoms: _38  and  _41
REMARK   18  A    between atoms: _41  and  _42
REMARK   19  A    between atoms: _45  and  _47
REMARK   20  A    between atoms: _47  and  _48
REMARK   21  A    between atoms: _47  and  _50
REMARK   22  A    between atoms: _50  and  _51
REMARK   23  A    between atoms: _54  and  _56
REMARK   24  A    between atoms: _56  and  _57
REMARK   25  A    between atoms: _59  and  _61
REMARK   26  A    between atoms: _61  and  _62
REMARK   27  A    between atoms: _65  and  _67
REMARK   28  A    between atoms: _67  and  _68
REMARK   29  A    between atoms: _67  and  _70
REMARK   30  A    between atoms: _70  and  _71
REMARK   31  A    between atoms: _74  and  _76
REMARK   32  A    between atoms: _76  and  _77
REMARK   33  A    between atoms: _76  and  _79
REMARK   34  A    between atoms: _79  and  _80
REMARK   35  A    between atoms: _83  and  _85
REMARK   36  A    between atoms: _85  and  _86
REMARK   37  A    between atoms: _85  and  _88
REMARK   38  A    between atoms: _88  and  _89
REMARK   39  A    between atoms: _92  and  _94
REMARK   40  A    between atoms: _94  and  _95
REMARK   41  A    between atoms: _94  and  _97
REMARK   42  A    between atoms: _100  and  _102
REMARK   43  A    between atoms: _102  and  _103
REMARK   44  A    between atoms: _102  and  _105
REMARK   45  A    between atoms: _105  and  _106
REMARK   46  A    between atoms: _109  and  _111
REMARK   47  A    between atoms: _111  and  _112
REMARK   48  A    between atoms: _111  and  _114
REMARK   49  A    between atoms: _114  and  _115
REMARK   50  A    between atoms: _115  and  _116
REMARK   51  A    between atoms: _118  and  _120
REMARK   52  A    between atoms: _120  and  _121
REMARK   53  A    between atoms: _120  and  _123
REMARK   54  A    between atoms: _123  and  _124
REMARK   55  A    between atoms: _127  and  _129
REMARK   56  A    between atoms: _129  and  _130
REMARK   57  A    between atoms: _129  and  _132
REMARK   58  A    between atoms: _135  and  _137
REMARK   59  A    between atoms: _137  and  _138
REMARK   60  A    between atoms: _140  and  _142
REMARK   61  A    between atoms: _142  and  _143
REMARK   62  A    between atoms: _142  and  _145
REMARK   63  A    between atoms: _145  and  _146
REMARK   64  A    between atoms: _149  and  _151
REMARK   65  A    between atoms: _151  and  _152
REMARK   66  A    between atoms: _154  and  _156
REMARK   67  A    between atoms: _156  and  _157
REMARK   68  A    between atoms: _159  and  _161
REMARK   69  A    between atoms: _161  and  _162
REMARK   70  A    between atoms: _161  and  _164
REMARK   71  A    between atoms: _167  and  _169
REMARK   72  A    between atoms: _169  and  _170
REMARK   73  A    between atoms: _169  and  _172
REMARK   74  A    between atoms: _175  and  _177
REMARK   75  A    between atoms: _177  and  _178
REMARK   76  A    between atoms: _177  and  _180
REMARK   77  A    between atoms: _180  and  _181
REMARK   78  A    between atoms: _184  and  _186
REMARK   79  A    between atoms: _186  and  _187
REMARK   80  A    between atoms: _186  and  _189
REMARK   81  A    between atoms: _189  and  _190
REMARK   82  A    between atoms: _194  and  _195
REMARK   83  A    between atoms: _200  and  _202
REMARK   84  A    between atoms: _202  and  _203
REMARK   85  A    between atoms: _206  and  _208
REMARK   86  A    between atoms: _208  and  _209
REMARK   87  A    between atoms: _208  and  _211
REMARK   88  A    between atoms: _211  and  _212
REMARK   89  A    between atoms: _217  and  _219
REMARK   90  A    between atoms: _219  and  _220
REMARK   91  A    between atoms: _219  and  _222
REMARK   92  A    between atoms: _222  and  _223
REMARK   93  A    between atoms: _226  and  _228
REMARK   94  A    between atoms: _228  and  _229
REMARK   95  A    between atoms: _228  and  _231
REMARK   96  A    between atoms: _231  and  _232
REMARK   97  A    between atoms: _235  and  _237
REMARK   98  A    between atoms: _237  and  _238
REMARK   99  A    between atoms: _240  and  _242
REMARK  100  A    between atoms: _242  and  _243
REMARK  101  A    between atoms: _242  and  _245
REMARK  102  A    between atoms: _245  and  _246
REMARK  103  A    between atoms: _246  and  _247
REMARK  104  A    between atoms: _247  and  _248
REMARK  105  A    between atoms: _257  and  _259
REMARK  106  A    between atoms: _259  and  _260
REMARK  107  A    between atoms: _259  and  _262
REMARK  108  A    between atoms: _262  and  _263
REMARK  109  A    between atoms: _268  and  _270
REMARK  110  A    between atoms: _270  and  _271
REMARK  111  A    between atoms: _270  and  _273
REMARK  112  A    between atoms: _273  and  _274
REMARK  113  A    between atoms: _274  and  _275
REMARK  114  A    between atoms: _275  and  _276
REMARK  115  A    between atoms: _285  and  _287
REMARK  116  A    between atoms: _287  and  _288
REMARK  117  A    between atoms: _287  and  _290
REMARK  118  A    between atoms: _290  and  _291
REMARK  119  A    between atoms: _294  and  _296
REMARK  120  A    between atoms: _296  and  _297
REMARK  121  A    between atoms: _296  and  _299
REMARK  122  A    between atoms: _299  and  _300
REMARK  123  A    between atoms: _303  and  _305
REMARK  124  A    between atoms: _305  and  _306
REMARK  125  A    between atoms: _305  and  _308
REMARK  126  A    between atoms: _308  and  _309
REMARK  127  A    between atoms: _312  and  _314
REMARK  128  A    between atoms: _314  and  _315
REMARK  129  A    between atoms: _314  and  _317
REMARK  130  A    between atoms: _317  and  _318
REMARK  131  A    between atoms: _321  and  _323
REMARK  132  A    between atoms: _323  and  _324
REMARK  133  A    between atoms: _326  and  _328
REMARK  134  A    between atoms: _328  and  _329
REMARK  135  A    between atoms: _332  and  _334
REMARK  136  A    between atoms: _334  and  _335
REMARK  137  A    between atoms: _334  and  _337
REMARK  138  A    between atoms: _337  and  _338
REMARK  139  A    between atoms: _341  and  _343
REMARK  140  A    between atoms: _343  and  _344
REMARK  141  A    between atoms: _343  and  _346
REMARK  142  A    between atoms: _346  and  _347
REMARK  143  A    between atoms: _350  and  _352
REMARK  144  A    between atoms: _352  and  _353
REMARK  145  A    between atoms: _352  and  _355
REMARK  146  A    between atoms: _355  and  _356
REMARK  147  A    between atoms: _359  and  _361
REMARK  148  A    between atoms: _361  and  _362
REMARK  149  A    between atoms: _361  and  _364
REMARK  150  A    between atoms: _367  and  _369
REMARK  151  A    between atoms: _369  and  _370
REMARK  152  A    between atoms: _369  and  _372
REMARK  153  A    between atoms: _372  and  _373
REMARK  154  A    between atoms: _376  and  _378
REMARK  155  A    between atoms: _378  and  _379
REMARK  156  A    between atoms: _378  and  _381
REMARK  157  A    between atoms: _381  and  _382
REMARK  158  A    between atoms: _382  and  _383
REMARK  159  A    between atoms: _386  and  _388
REMARK  160  A    between atoms: _388  and  _389
REMARK  161  A    between atoms: _388  and  _391
REMARK  162  A    between atoms: _391  and  _392
REMARK  163  A    between atoms: _392  and  _393
REMARK  164  A    between atoms: _393  and  _394
REMARK  165  A    between atoms: _394  and  _395
REMARK  166  A    between atoms: _399  and  _401
REMARK  167  A    between atoms: _401  and  _402
REMARK  168  A    between atoms: _401  and  _404
REMARK  169  A    between atoms: _404  and  _405
REMARK  170  A    between atoms: _405  and  _406
REMARK  171  A    between atoms: _408  and  _410
REMARK  172  A    between atoms: _410  and  _411
REMARK  173  A    between atoms: _410  and  _413
REMARK  174  A    between atoms: _413  and  _414
REMARK  175  A    between atoms: _417  and  _419
REMARK  176  A    between atoms: _419  and  _420
REMARK  177  A    between atoms: _419  and  _422
REMARK  178  A    between atoms: _425  and  _427
REMARK  179  A    between atoms: _427  and  _428
REMARK  180  A    between atoms: _430  and  _432
REMARK  181  A    between atoms: _432  and  _433
REMARK  182  A    between atoms: _432  and  _435
REMARK  183  A    between atoms: _435  and  _436
REMARK  184  A    between atoms: _439  and  _441
REMARK  185  A    between atoms: _441  and  _442
REMARK  186  A    between atoms: _444  and  _446
REMARK  187  A    between atoms: _446  and  _447
REMARK  188  A    between atoms: _449  and  _451
REMARK  189  A    between atoms: _451  and  _452
REMARK  190  A    between atoms: _451  and  _454
REMARK  191  A    between atoms: _457  and  _459
REMARK  192  A    between atoms: _459  and  _460
REMARK  193  A    between atoms: _459  and  _462
REMARK  194  A    between atoms: _465  and  _467
REMARK  195  A    between atoms: _467  and  _468
REMARK  196  A    between atoms: _467  and  _470
REMARK  197  A    between atoms: _470  and  _471
REMARK  198  A    between atoms: _475  and  _476
REMARK  199  A    between atoms: _481  and  _483
REMARK  200  A    between atoms: _483  and  _484
REMARK  201  A    between atoms: _483  and  _486
REMARK  202  A    between atoms: _486  and  _487
REMARK  203  A    between atoms: _491  and  _492
REMARK  204  A    between atoms: _497  and  _499
REMARK  205  A    between atoms: _499  and  _500
REMARK  206  A    between atoms: _503  and  _505
REMARK  207  A    between atoms: _505  and  _506
REMARK  208  A    between atoms: _505  and  _508
REMARK  209  A    between atoms: _508  and  _509
REMARK  210  A    between atoms: _514  and  _516
REMARK  211  A    between atoms: _516  and  _517
REMARK  212  A    between atoms: _516  and  _519
REMARK  213  A    between atoms: _519  and  _520
REMARK  214  A    between atoms: _523  and  _525
REMARK  215  A    between atoms: _525  and  _526
REMARK  216  A    between atoms: _525  and  _528
REMARK  217  A    between atoms: _528  and  _529
REMARK  218  A    between atoms: _532  and  _534
REMARK  219  A    between atoms: _534  and  _535
REMARK  220  A    between atoms: _537  and  _539
REMARK  221  A    between atoms: _539  and  _540
REMARK  222  A    between atoms: _539  and  _542
REMARK  223  A    between atoms: _542  and  _543
REMARK  224  A    between atoms: _543  and  _544
REMARK  225  A    between atoms: _544  and  _545
REMARK  226  A    between atoms: _554  and  _556
REMARK  227  A    between atoms: _556  and  _557
REMARK  228  A    between atoms: _556  and  _559
REMARK  229  A    between atoms: _559  and  _560
REMARK                            x       y       z     vdW  Elec       q    Type
REMARK                         _______ _______ _______ _____ _____    ______ ____
ROOT
ATOM      1  O   HOH     1      16.559 -15.578  41.411  0.00  0.00    +0.000 OA
ENDROOT
TORSDOF 0
REMARK  Name = ../refined-set-2016/3ekp/3ekp_pocket.pdb
REMARK  229 active torsions:
REMARK  status: ('A' for Active; 'I' for Inactive)
REMARK    1  A    between atoms: _1  and  _3
REMARK    2  A    between atoms: _3  and  _4
REMARK    3  A    between atoms: _3  and  _6
REMARK    4  A    between atoms: _6  and  _7
REMARK    5  A    between atoms: _7  and  _8
REMARK    6  A    between atoms: _8  and  _9
REMARK    7  A    between atoms: _18  and  _20
REMARK    8  A    between atoms: _20  and  _21
REMARK    9  A    between atoms: _20  and  _23
REMARK   10  A    between atoms: _23  and  _24
REMARK   11  A    between atoms: _27  and  _29
REMARK   12  A    between atoms: _29  and  _30
REMARK   13  A    between atoms: _29  and  _32
REMARK   14  A    between atoms: _32  and  _33
REMARK   15  A    between atoms: _36  and  _38
REMARK   16  A    between atoms: _38  and  _39
REMARK   17  A    between atoms: _38  and  _41
REMARK   18  A    between atoms: _41  and  _42
REMARK   19  A    between atoms: _45  and  _47
REMARK   20  A    between atoms: _47  and  _48
REMARK   21  A    between atoms: _47  and  _50
REMARK   22  A    between atoms: _50  and  _51
REMARK   23  A    between atoms: _54  and  _56
REMARK   24  A    between atoms: _56  and  _57
REMARK   25  A    between atoms: _59  and  _61
REMARK   26  A    between atoms: _61  and  _62
REMARK   27  A    between atoms: _65  and  _67
REMARK   28  A    between atoms: _67  and  _68
REMARK   29  A    between atoms: _67  and  _70
REMARK   30  A    between atoms: _70  and  _71
REMARK   31  A    between atoms: _74  and  _76
REMARK   32  A    between atoms: _76  and  _77
REMARK   33  A    between atoms: _76  and  _79
REMARK   34  A    between atoms: _79  and  _80
REMARK   35  A    between atoms: _83  and  _85
REMARK   36  A    between atoms: _85  and  _86
REMARK   37  A    between atoms: _85  and  _88
REMARK   38  A    between atoms: _88  and  _89
REMARK   39  A    between atoms: _92  and  _94
REMARK   40  A    between atoms: _94  and  _95
REMARK   41  A    between atoms: _94  and  _97
REMARK   42  A    between atoms: _100  and  _102
REMARK   43  A    between atoms: _102  and  _103
REMARK   44  A    between atoms: _102  and  _105
REMARK   45  A    between atoms: _105  and  _106
REMARK   46  A    between atoms: _109  and  _111
REMARK   47  A    between atoms: _111  and  _112
REMARK   48  A    between atoms: _111  and  _114
REMARK   49  A    between atoms: _114  and  _115
REMARK   50  A    between atoms: _115  and  _116
REMARK   51  A    between atoms: _118  and  _120
REMARK   52  A    between atoms: _120  and  _121
REMARK   53  A    between atoms: _120  and  _123
REMARK   54  A    between atoms: _123  and  _124
REMARK   55  A    between atoms: _127  and  _129
REMARK   56  A    between atoms: _129  and  _130
REMARK   57  A    between atoms: _129  and  _132
REMARK   58  A    between atoms: _135  and  _137
REMARK   59  A    between atoms: _137  and  _138
REMARK   60  A    between atoms: _140  and  _142
REMARK   61  A    between atoms: _142  and  _143
REMARK   62  A    between atoms: _142  and  _145
REMARK   63  A    between atoms: _145  and  _146
REMARK   64  A    between atoms: _149  and  _151
REMARK   65  A    between atoms: _151  and  _152
REMARK   66  A    between atoms: _154  and  _156
REMARK   67  A    between atoms: _156  and  _157
REMARK   68  A    between atoms: _159  and  _161
REMARK   69  A    between atoms: _161  and  _162
REMARK   70  A    between atoms: _161  and  _164
REMARK   71  A    between atoms: _167  and  _169
REMARK   72  A    between atoms: _169  and  _170
REMARK   73  A    between atoms: _169  and  _172
REMARK   74  A    between atoms: _175  and  _177
REMARK   75  A    between atoms: _177  and  _178
REMARK   76  A    between atoms: _177  and  _180
REMARK   77  A    between atoms: _180  and  _181
REMARK   78  A    between atoms: _184  and  _186
REMARK   79  A    between atoms: _186  and  _187
REMARK   80  A    between atoms: _186  and  _189
REMARK   81  A    between atoms: _189  and  _190
REMARK   82  A    between atoms: _194  and  _195
REMARK   83  A    between atoms: _200  and  _202
REMARK   84  A    between atoms: _202  and  _203
REMARK   85  A    between atoms: _206  and  _208
REMARK   86  A    between atoms: _208  and  _209
REMARK   87  A    between atoms: _208  and  _211
REMARK   88  A    between atoms: _211  and  _212
REMARK   89  A    between atoms: _217  and  _219
REMARK   90  A    between atoms: _219  and  _220
REMARK   91  A    between atoms: _219  and  _222
REMARK   92  A    between atoms: _222  and  _223
REMARK   93  A    between atoms: _226  and  _228
REMARK   94  A    between atoms: _228  and  _229
REMARK   95  A    between atoms: _228  and  _231
REMARK   96  A    between atoms: _231  and  _232
REMARK   97  A    between atoms: _235  and  _237
REMARK   98  A    between atoms: _237  and  _238
REMARK   99  A    between atoms: _240  and  _242
REMARK  100  A    between atoms: _242  and  _243
REMARK  101  A    between atoms: _242  and  _245
REMARK  102  A    between atoms: _245  and  _246
REMARK  103  A    between atoms: _246  and  _247
REMARK  104  A    between atoms: _247  and  _248
REMARK  105  A    between atoms: _257  and  _259
REMARK  106  A    between atoms: _259  and  _260
REMARK  107  A    between atoms: _259  and  _262
REMARK  108  A    between atoms: _262  and  _263
REMARK  109  A    between atoms: _268  and  _270
REMARK  110  A    between atoms: _270  and  _271
REMARK  111  A    between atoms: _270  and  _273
REMARK  112  A    between atoms: _273  and  _274
REMARK  113  A    between atoms: _274  and  _275
REMARK  114  A    between atoms: _275  and  _276
REMARK  115  A    between atoms: _285  and  _287
REMARK  116  A    between atoms: _287  and  _288
REMARK  117  A    between atoms: _287  and  _290
REMARK  118  A    between atoms: _290  and  _291
REMARK  119  A    between atoms: _294  and  _296
REMARK  120  A    between atoms: _296  and  _297
REMARK  121  A    between atoms: _296  and  _299
REMARK  122  A    between atoms: _299  and  _300
REMARK  123  A    between atoms: _303  and  _305
REMARK  124  A    between atoms: _305  and  _306
REMARK  125  A    between atoms: _305  and  _308
REMARK  126  A    between atoms: _308  and  _309
REMARK  127  A    between atoms: _312  and  _314
REMARK  128  A    between atoms: _314  and  _315
REMARK  129  A    between atoms: _314  and  _317
REMARK  130  A    between atoms: _317  and  _318
REMARK  131  A    between atoms: _321  and  _323
REMARK  132  A    between atoms: _323  and  _324
REMARK  133  A    between atoms: _326  and  _328
REMARK  134  A    between atoms: _328  and  _329
REMARK  135  A    between atoms: _332  and  _334
REMARK  136  A    between atoms: _334  and  _335
REMARK  137  A    between atoms: _334  and  _337
REMARK  138  A    between atoms: _337  and  _338
REMARK  139  A    between atoms: _341  and  _343
REMARK  140  A    between atoms: _343  and  _344
REMARK  141  A    between atoms: _343  and  _346
REMARK  142  A    between atoms: _346  and  _347
REMARK  143  A    between atoms: _350  and  _352
REMARK  144  A    between atoms: _352  and  _353
REMARK  145  A    between atoms: _352  and  _355
REMARK  146  A    between atoms: _355  and  _356
REMARK  147  A    between atoms: _359  and  _361
REMARK  148  A    between atoms: _361  and  _362
REMARK  149  A    between atoms: _361  and  _364
REMARK  150  A    between atoms: _367  and  _369
REMARK  151  A    between atoms: _369  and  _370
REMARK  152  A    between atoms: _369  and  _372
REMARK  153  A    between atoms: _372  and  _373
REMARK  154  A    between atoms: _376  and  _378
REMARK  155  A    between atoms: _378  and  _379
REMARK  156  A    between atoms: _378  and  _381
REMARK  157  A    between atoms: _381  and  _382
REMARK  158  A    between atoms: _382  and  _383
REMARK  159  A    between atoms: _386  and  _388
REMARK  160  A    between atoms: _388  and  _389
REMARK  161  A    between atoms: _388  and  _391
REMARK  162  A    between atoms: _391  and  _392
REMARK  163  A    between atoms: _392  and  _393
REMARK  164  A    between atoms: _393  and  _394
REMARK  165  A    between atoms: _394  and  _395
REMARK  166  A    between atoms: _399  and  _401
REMARK  167  A    between atoms: _401  and  _402
REMARK  168  A    between atoms: _401  and  _404
REMARK  169  A    between atoms: _404  and  _405
REMARK  170  A    between atoms: _405  and  _406
REMARK  171  A    between atoms: _408  and  _410
REMARK  172  A    between atoms: _410  and  _411
REMARK  173  A    between atoms: _410  and  _413
REMARK  174  A    between atoms: _413  and  _414
REMARK  175  A    between atoms: _417  and  _419
REMARK  176  A    between atoms: _419  and  _420
REMARK  177  A    between atoms: _419  and  _422
REMARK  178  A    between atoms: _425  and  _427
REMARK  179  A    between atoms: _427  and  _428
REMARK  180  A    between atoms: _430  and  _432
REMARK  181  A    between atoms: _432  and  _433
REMARK  182  A    between atoms: _432  and  _435
REMARK  183  A    between atoms: _435  and  _436
REMARK  184  A    between atoms: _439  and  _441
REMARK  185  A    between atoms: _441  and  _442
REMARK  186  A    between atoms: _444  and  _446
REMARK  187  A    between atoms: _446  and  _447
REMARK  188  A    between atoms: _449  and  _451
REMARK  189  A    between atoms: _451  and  _452
REMARK  190  A    between atoms: _451  and  _454
REMARK  191  A    between atoms: _457  and  _459
REMARK  192  A    between atoms: _459  and  _460
REMARK  193  A    between atoms: _459  and  _462
REMARK  194  A    between atoms: _465  and  _467
REMARK  195  A    between atoms: _467  and  _468
REMARK  196  A    between atoms: _467  and  _470
REMARK  197  A    between atoms: _470  and  _471
REMARK  198  A    between atoms: _475  and  _476
REMARK  199  A    between atoms: _481  and  _483
REMARK  200  A    between atoms: _483  and  _484
REMARK  201  A    between atoms: _483  and  _486
REMARK  202  A    between atoms: _486  and  _487
REMARK  203  A    between atoms: _491  and  _492
REMARK  204  A    between atoms: _497  and  _499
REMARK  205  A    between atoms: _499  and  _500
REMARK  206  A    between atoms: _503  and  _505
REMARK  207  A    between atoms: _505  and  _506
REMARK  208  A    between atoms: _505  and  _508
REMARK  209  A    between atoms: _508  and  _509
REMARK  210  A    between atoms: _514  and  _516
REMARK  211  A    between atoms: _516  and  _517
REMARK  212  A    between atoms: _516  and  _519
REMARK  213  A    between atoms: _519  and  _520
REMARK  214  A    between atoms: _523  and  _525
REMARK  215  A    between atoms: _525  and  _526
REMARK  216  A    between atoms: _525  and  _528
REMARK  217  A    between atoms: _528  and  _529
REMARK  218  A    between atoms: _532  and  _534
REMARK  219  A    between atoms: _534  and  _535
REMARK  220  A    between atoms: _537  and  _539
REMARK  221  A    between atoms: _539  and  _540
REMARK  222  A    between atoms: _539  and  _542
REMARK  223  A    between atoms: _542  and  _543
REMARK  224  A    between atoms: _543  and  _544
REMARK  225  A    between atoms: _544  and  _545
REMARK  226  A    between atoms: _554  and  _556
REMARK  227  A    between atoms: _556  and  _557
REMARK  228  A    between atoms: _556  and  _559
REMARK  229  A    between atoms: _559  and  _560
REMARK                            x       y       z     vdW  Elec       q    Type
REMARK                         _______ _______ _______ _____ _____    ______ ____
ROOT
ATOM      1  O   HOH     1       4.177 -29.470  40.201  0.00  0.00    +0.000 OA
ENDROOT
TORSDOF 0
REMARK  Name = ../refined-set-2016/3ekp/3ekp_pocket.pdb
REMARK  229 active torsions:
REMARK  status: ('A' for Active; 'I' for Inactive)
REMARK    1  A    between atoms: _1  and  _3
REMARK    2  A    between atoms: _3  and  _4
REMARK    3  A    between atoms: _3  and  _6
REMARK    4  A    between atoms: _6  and  _7
REMARK    5  A    between atoms: _7  and  _8
REMARK    6  A    between atoms: _8  and  _9
REMARK    7  A    between atoms: _18  and  _20
REMARK    8  A    between atoms: _20  and  _21
REMARK    9  A    between atoms: _20  and  _23
REMARK   10  A    between atoms: _23  and  _24
REMARK   11  A    between atoms: _27  and  _29
REMARK   12  A    between atoms: _29  and  _30
REMARK   13  A    between atoms: _29  and  _32
REMARK   14  A    between atoms: _32  and  _33
REMARK   15  A    between atoms: _36  and  _38
REMARK   16  A    between atoms: _38  and  _39
REMARK   17  A    between atoms: _38  and  _41
REMARK   18  A    between atoms: _41  and  _42
REMARK   19  A    between atoms: _45  and  _47
REMARK   20  A    between atoms: _47  and  _48
REMARK   21  A    between atoms: _47  and  _50
REMARK   22  A    between atoms: _50  and  _51
REMARK   23  A    between atoms: _54  and  _56
REMARK   24  A    between atoms: _56  and  _57
REMARK   25  A    between atoms: _59  and  _61
REMARK   26  A    between atoms: _61  and  _62
REMARK   27  A    between atoms: _65  and  _67
REMARK   28  A    between atoms: _67  and  _68
REMARK   29  A    between atoms: _67  and  _70
REMARK   30  A    between atoms: _70  and  _71
REMARK   31  A    between atoms: _74  and  _76
REMARK   32  A    between atoms: _76  and  _77
REMARK   33  A    between atoms: _76  and  _79
REMARK   34  A    between atoms: _79  and  _80
REMARK   35  A    between atoms: _83  and  _85
REMARK   36  A    between atoms: _85  and  _86
REMARK   37  A    between atoms: _85  and  _88
REMARK   38  A    between atoms: _88  and  _89
REMARK   39  A    between atoms: _92  and  _94
REMARK   40  A    between atoms: _94  and  _95
REMARK   41  A    between atoms: _94  and  _97
REMARK   42  A    between atoms: _100  and  _102
REMARK   43  A    between atoms: _102  and  _103
REMARK   44  A    between atoms: _102  and  _105
REMARK   45  A    between atoms: _105  and  _106
REMARK   46  A    between atoms: _109  and  _111
REMARK   47  A    between atoms: _111  and  _112
REMARK   48  A    between atoms: _111  and  _114
REMARK   49  A    between atoms: _114  and  _115
REMARK   50  A    between atoms: _115  and  _116
REMARK   51  A    between atoms: _118  and  _120
REMARK   52  A    between atoms: _120  and  _121
REMARK   53  A    between atoms: _120  and  _123
REMARK   54  A    between atoms: _123  and  _124
REMARK   55  A    between atoms: _127  and  _129
REMARK   56  A    between atoms: _129  and  _130
REMARK   57  A    between atoms: _129  and  _132
REMARK   58  A    between atoms: _135  and  _137
REMARK   59  A    between atoms: _137  and  _138
REMARK   60  A    between atoms: _140  and  _142
REMARK   61  A    between atoms: _142  and  _143
REMARK   62  A    between atoms: _142  and  _145
REMARK   63  A    between atoms: _145  and  _146
REMARK   64  A    between atoms: _149  and  _151
REMARK   65  A    between atoms: _151  and  _152
REMARK   66  A    between atoms: _154  and  _156
REMARK   67  A    between atoms: _156  and  _157
REMARK   68  A    between atoms: _159  and  _161
REMARK   69  A    between atoms: _161  and  _162
REMARK   70  A    between atoms: _161  and  _164
REMARK   71  A    between atoms: _167  and  _169
REMARK   72  A    between atoms: _169  and  _170
REMARK   73  A    between atoms: _169  and  _172
REMARK   74  A    between atoms: _175  and  _177
REMARK   75  A    between atoms: _177  and  _178
REMARK   76  A    between atoms: _177  and  _180
REMARK   77  A    between atoms: _180  and  _181
REMARK   78  A    between atoms: _184  and  _186
REMARK   79  A    between atoms: _186  and  _187
REMARK   80  A    between atoms: _186  and  _189
REMARK   81  A    between atoms: _189  and  _190
REMARK   82  A    between atoms: _194  and  _195
REMARK   83  A    between atoms: _200  and  _202
REMARK   84  A    between atoms: _202  and  _203
REMARK   85  A    between atoms: _206  and  _208
REMARK   86  A    between atoms: _208  and  _209
REMARK   87  A    between atoms: _208  and  _211
REMARK   88  A    between atoms: _211  and  _212
REMARK   89  A    between atoms: _217  and  _219
REMARK   90  A    between atoms: _219  and  _220
REMARK   91  A    between atoms: _219  and  _222
REMARK   92  A    between atoms: _222  and  _223
REMARK   93  A    between atoms: _226  and  _228
REMARK   94  A    between atoms: _228  and  _229
REMARK   95  A    between atoms: _228  and  _231
REMARK   96  A    between atoms: _231  and  _232
REMARK   97  A    between atoms: _235  and  _237
REMARK   98  A    between atoms: _237  and  _238
REMARK   99  A    between atoms: _240  and  _242
REMARK  100  A    between atoms: _242  and  _243
REMARK  101  A    between atoms: _242  and  _245
REMARK  102  A    between atoms: _245  and  _246
REMARK  103  A    between atoms: _246  and  _247
REMARK  104  A    between atoms: _247  and  _248
REMARK  105  A    between atoms: _257  and  _259
REMARK  106  A    between atoms: _259  and  _260
REMARK  107  A    between atoms: _259  and  _262
REMARK  108  A    between atoms: _262  and  _263
REMARK  109  A    between atoms: _268  and  _270
REMARK  110  A    between atoms: _270  and  _271
REMARK  111  A    between atoms: _270  and  _273
REMARK  112  A    between atoms: _273  and  _274
REMARK  113  A    between atoms: _274  and  _275
REMARK  114  A    between atoms: _275  and  _276
REMARK  115  A    between atoms: _285  and  _287
REMARK  116  A    between atoms: _287  and  _288
REMARK  117  A    between atoms: _287  and  _290
REMARK  118  A    between atoms: _290  and  _291
REMARK  119  A    between atoms: _294  and  _296
REMARK  120  A    between atoms: _296  and  _297
REMARK  121  A    between atoms: _296  and  _299
REMARK  122  A    between atoms: _299  and  _300
REMARK  123  A    between atoms: _303  and  _305
REMARK  124  A    between atoms: _305  and  _306
REMARK  125  A    between atoms: _305  and  _308
REMARK  126  A    between atoms: _308  and  _309
REMARK  127  A    between atoms: _312  and  _314
REMARK  128  A    between atoms: _314  and  _315
REMARK  129  A    between atoms: _314  and  _317
REMARK  130  A    between atoms: _317  and  _318
REMARK  131  A    between atoms: _321  and  _323
REMARK  132  A    between atoms: _323  and  _324
REMARK  133  A    between atoms: _326  and  _328
REMARK  134  A    between atoms: _328  and  _329
REMARK  135  A    between atoms: _332  and  _334
REMARK  136  A    between atoms: _334  and  _335
REMARK  137  A    between atoms: _334  and  _337
REMARK  138  A    between atoms: _337  and  _338
REMARK  139  A    between atoms: _341  and  _343
REMARK  140  A    between atoms: _343  and  _344
REMARK  141  A    between atoms: _343  and  _346
REMARK  142  A    between atoms: _346  and  _347
REMARK  143  A    between atoms: _350  and  _352
REMARK  144  A    between atoms: _352  and  _353
REMARK  145  A    between atoms: _352  and  _355
REMARK  146  A    between atoms: _355  and  _356
REMARK  147  A    between atoms: _359  and  _361
REMARK  148  A    between atoms: _361  and  _362
REMARK  149  A    between atoms: _361  and  _364
REMARK  150  A    between atoms: _367  and  _369
REMARK  151  A    between atoms: _369  and  _370
REMARK  152  A    between atoms: _369  and  _372
REMARK  153  A    between atoms: _372  and  _373
REMARK  154  A    between atoms: _376  and  _378
REMARK  155  A    between atoms: _378  and  _379
REMARK  156  A    between atoms: _378  and  _381
REMARK  157  A    between atoms: _381  and  _382
REMARK  158  A    between atoms: _382  and  _383
REMARK  159  A    between atoms: _386  and  _388
REMARK  160  A    between atoms: _388  and  _389
REMARK  161  A    between atoms: _388  and  _391
REMARK  162  A    between atoms: _391  and  _392
REMARK  163  A    between atoms: _392  and  _393
REMARK  164  A    between atoms: _393  and  _394
REMARK  165  A    between atoms: _394  and  _395
REMARK  166  A    between atoms: _399  and  _401
REMARK  167  A    between atoms: _401  and  _402
REMARK  168  A    between atoms: _401  and  _404
REMARK  169  A    between atoms: _404  and  _405
REMARK  170  A    between atoms: _405  and  _406
REMARK  171  A    between atoms: _408  and  _410
REMARK  172  A    between atoms: _410  and  _411
REMARK  173  A    between atoms: _410  and  _413
REMARK  174  A    between atoms: _413  and  _414
REMARK  175  A    between atoms: _417  and  _419
REMARK  176  A    between atoms: _419  and  _420
REMARK  177  A    between atoms: _419  and  _422
REMARK  178  A    between atoms: _425  and  _427
REMARK  179  A    between atoms: _427  and  _428
REMARK  180  A    between atoms: _430  and  _432
REMARK  181  A    between atoms: _432  and  _433
REMARK  182  A    between atoms: _432  and  _435
REMARK  183  A    between atoms: _435  and  _436
REMARK  184  A    between atoms: _439  and  _441
REMARK  185  A    between atoms: _441  and  _442
REMARK  186  A    between atoms: _444  and  _446
REMARK  187  A    between atoms: _446  and  _447
REMARK  188  A    between atoms: _449  and  _451
REMARK  189  A    between atoms: _451  and  _452
REMARK  190  A    between atoms: _451  and  _454
REMARK  191  A    between atoms: _457  and  _459
REMARK  192  A    between atoms: _459  and  _460
REMARK  193  A    between atoms: _459  and  _462
REMARK  194  A    between atoms: _465  and  _467
REMARK  195  A    between atoms: _467  and  _468
REMARK  196  A    between atoms: _467  and  _470
REMARK  197  A    between atoms: _470  and  _471
REMARK  198  A    between atoms: _475  and  _476
REMARK  199  A    between atoms: _481  and  _483
REMARK  200  A    between atoms: _483  and  _484
REMARK  201  A    between atoms: _483  and  _486
REMARK  202  A    between atoms: _486  and  _487
REMARK  203  A    between atoms: _491  and  _492
REMARK  204  A    between atoms: _497  and  _499
REMARK  205  A    between atoms: _499  and  _500
REMARK  206  A    between atoms: _503  and  _505
REMARK  207  A    between atoms: _505  and  _506
REMARK  208  A    between atoms: _505  and  _508
REMARK  209  A    between atoms: _508  and  _509
REMARK  210  A    between atoms: _514  and  _516
REMARK  211  A    between atoms: _516  and  _517
REMARK  212  A    between atoms: _516  and  _519
REMARK  213  A    between atoms: _519  and  _520
REMARK  214  A    between atoms: _523  and  _525
REMARK  215  A    between atoms: _525  and  _526
REMARK  216  A    between atoms: _525  and  _528
REMARK  217  A    between atoms: _528  and  _529
REMARK  218  A    between atoms: _532  and  _534
REMARK  219  A    between atoms: _534  and  _535
REMARK  220  A    between atoms: _537  and  _539
REMARK  221  A    between atoms: _539  and  _540
REMARK  222  A    between atoms: _539  and  _542
REMARK  223  A    between atoms: _542  and  _543
REMARK  224  A    between atoms: _543  and  _544
REMARK  225  A    between atoms: _544  and  _545
REMARK  226  A    between atoms: _554  and  _556
REMARK  227  A    between atoms: _556  and  _557
REMARK  228  A    between atoms: _556  and  _559
REMARK  229  A    between atoms: _559  and  _560
REMARK                            x       y       z     vdW  Elec       q    Type
REMARK                         _______ _______ _______ _____ _____    ______ ____
ROOT
ATOM      1  O   HOH     1      10.734 -18.643  35.410  0.00  0.00    +0.000 OA
ENDROOT
TORSDOF 0
REMARK  Name = ../refined-set-2016/3ekp/3ekp_pocket.pdb
REMARK  229 active torsions:
REMARK  status: ('A' for Active; 'I' for Inactive)
REMARK    1  A    between atoms: _1  and  _3
REMARK    2  A    between atoms: _3  and  _4
REMARK    3  A    between atoms: _3  and  _6
REMARK    4  A    between atoms: _6  and  _7
REMARK    5  A    between atoms: _7  and  _8
REMARK    6  A    between atoms: _8  and  _9
REMARK    7  A    between atoms: _18  and  _20
REMARK    8  A    between atoms: _20  and  _21
REMARK    9  A    between atoms: _20  and  _23
REMARK   10  A    between atoms: _23  and  _24
REMARK   11  A    between atoms: _27  and  _29
REMARK   12  A    between atoms: _29  and  _30
REMARK   13  A    between atoms: _29  and  _32
REMARK   14  A    between atoms: _32  and  _33
REMARK   15  A    between atoms: _36  and  _38
REMARK   16  A    between atoms: _38  and  _39
REMARK   17  A    between atoms: _38  and  _41
REMARK   18  A    between atoms: _41  and  _42
REMARK   19  A    between atoms: _45  and  _47
REMARK   20  A    between atoms: _47  and  _48
REMARK   21  A    between atoms: _47  and  _50
REMARK   22  A    between atoms: _50  and  _51
REMARK   23  A    between atoms: _54  and  _56
REMARK   24  A    between atoms: _56  and  _57
REMARK   25  A    between atoms: _59  and  _61
REMARK   26  A    between atoms: _61  and  _62
REMARK   27  A    between atoms: _65  and  _67
REMARK   28  A    between atoms: _67  and  _68
REMARK   29  A    between atoms: _67  and  _70
REMARK   30  A    between atoms: _70  and  _71
REMARK   31  A    between atoms: _74  and  _76
REMARK   32  A    between atoms: _76  and  _77
REMARK   33  A    between atoms: _76  and  _79
REMARK   34  A    between atoms: _79  and  _80
REMARK   35  A    between atoms: _83  and  _85
REMARK   36  A    between atoms: _85  and  _86
REMARK   37  A    between atoms: _85  and  _88
REMARK   38  A    between atoms: _88  and  _89
REMARK   39  A    between atoms: _92  and  _94
REMARK   40  A    between atoms: _94  and  _95
REMARK   41  A    between atoms: _94  and  _97
REMARK   42  A    between atoms: _100  and  _102
REMARK   43  A    between atoms: _102  and  _103
REMARK   44  A    between atoms: _102  and  _105
REMARK   45  A    between atoms: _105  and  _106
REMARK   46  A    between atoms: _109  and  _111
REMARK   47  A    between atoms: _111  and  _112
REMARK   48  A    between atoms: _111  and  _114
REMARK   49  A    between atoms: _114  and  _115
REMARK   50  A    between atoms: _115  and  _116
REMARK   51  A    between atoms: _118  and  _120
REMARK   52  A    between atoms: _120  and  _121
REMARK   53  A    between atoms: _120  and  _123
REMARK   54  A    between atoms: _123  and  _124
REMARK   55  A    between atoms: _127  and  _129
REMARK   56  A    between atoms: _129  and  _130
REMARK   57  A    between atoms: _129  and  _132
REMARK   58  A    between atoms: _135  and  _137
REMARK   59  A    between atoms: _137  and  _138
REMARK   60  A    between atoms: _140  and  _142
REMARK   61  A    between atoms: _142  and  _143
REMARK   62  A    between atoms: _142  and  _145
REMARK   63  A    between atoms: _145  and  _146
REMARK   64  A    between atoms: _149  and  _151
REMARK   65  A    between atoms: _151  and  _152
REMARK   66  A    between atoms: _154  and  _156
REMARK   67  A    between atoms: _156  and  _157
REMARK   68  A    between atoms: _159  and  _161
REMARK   69  A    between atoms: _161  and  _162
REMARK   70  A    between atoms: _161  and  _164
REMARK   71  A    between atoms: _167  and  _169
REMARK   72  A    between atoms: _169  and  _170
REMARK   73  A    between atoms: _169  and  _172
REMARK   74  A    between atoms: _175  and  _177
REMARK   75  A    between atoms: _177  and  _178
REMARK   76  A    between atoms: _177  and  _180
REMARK   77  A    between atoms: _180  and  _181
REMARK   78  A    between atoms: _184  and  _186
REMARK   79  A    between atoms: _186  and  _187
REMARK   80  A    between atoms: _186  and  _189
REMARK   81  A    between atoms: _189  and  _190
REMARK   82  A    between atoms: _194  and  _195
REMARK   83  A    between atoms: _200  and  _202
REMARK   84  A    between atoms: _202  and  _203
REMARK   85  A    between atoms: _206  and  _208
REMARK   86  A    between atoms: _208  and  _209
REMARK   87  A    between atoms: _208  and  _211
REMARK   88  A    between atoms: _211  and  _212
REMARK   89  A    between atoms: _217  and  _219
REMARK   90  A    between atoms: _219  and  _220
REMARK   91  A    between atoms: _219  and  _222
REMARK   92  A    between atoms: _222  and  _223
REMARK   93  A    between atoms: _226  and  _228
REMARK   94  A    between atoms: _228  and  _229
REMARK   95  A    between atoms: _228  and  _231
REMARK   96  A    between atoms: _231  and  _232
REMARK   97  A    between atoms: _235  and  _237
REMARK   98  A    between atoms: _237  and  _238
REMARK   99  A    between atoms: _240  and  _242
REMARK  100  A    between atoms: _242  and  _243
REMARK  101  A    between atoms: _242  and  _245
REMARK  102  A    between atoms: _245  and  _246
REMARK  103  A    between atoms: _246  and  _247
REMARK  104  A    between atoms: _247  and  _248
REMARK  105  A    between atoms: _257  and  _259
REMARK  106  A    between atoms: _259  and  _260
REMARK  107  A    between atoms: _259  and  _262
REMARK  108  A    between atoms: _262  and  _263
REMARK  109  A    between atoms: _268  and  _270
REMARK  110  A    between atoms: _270  and  _271
REMARK  111  A    between atoms: _270  and  _273
REMARK  112  A    between atoms: _273  and  _274
REMARK  113  A    between atoms: _274  and  _275
REMARK  114  A    between atoms: _275  and  _276
REMARK  115  A    between atoms: _285  and  _287
REMARK  116  A    between atoms: _287  and  _288
REMARK  117  A    between atoms: _287  and  _290
REMARK  118  A    between atoms: _290  and  _291
REMARK  119  A    between atoms: _294  and  _296
REMARK  120  A    between atoms: _296  and  _297
REMARK  121  A    between atoms: _296  and  _299
REMARK  122  A    between atoms: _299  and  _300
REMARK  123  A    between atoms: _303  and  _305
REMARK  124  A    between atoms: _305  and  _306
REMARK  125  A    between atoms: _305  and  _308
REMARK  126  A    between atoms: _308  and  _309
REMARK  127  A    between atoms: _312  and  _314
REMARK  128  A    between atoms: _314  and  _315
REMARK  129  A    between atoms: _314  and  _317
REMARK  130  A    between atoms: _317  and  _318
REMARK  131  A    between atoms: _321  and  _323
REMARK  132  A    between atoms: _323  and  _324
REMARK  133  A    between atoms: _326  and  _328
REMARK  134  A    between atoms: _328  and  _329
REMARK  135  A    between atoms: _332  and  _334
REMARK  136  A    between atoms: _334  and  _335
REMARK  137  A    between atoms: _334  and  _337
REMARK  138  A    between atoms: _337  and  _338
REMARK  139  A    between atoms: _341  and  _343
REMARK  140  A    between atoms: _343  and  _344
REMARK  141  A    between atoms: _343  and  _346
REMARK  142  A    between atoms: _346  and  _347
REMARK  143  A    between atoms: _350  and  _352
REMARK  144  A    between atoms: _352  and  _353
REMARK  145  A    between atoms: _352  and  _355
REMARK  146  A    between atoms: _355  and  _356
REMARK  147  A    between atoms: _359  and  _361
REMARK  148  A    between atoms: _361  and  _362
REMARK  149  A    between atoms: _361  and  _364
REMARK  150  A    between atoms: _367  and  _369
REMARK  151  A    between atoms: _369  and  _370
REMARK  152  A    between atoms: _369  and  _372
REMARK  153  A    between atoms: _372  and  _373
REMARK  154  A    between atoms: _376  and  _378
REMARK  155  A    between atoms: _378  and  _379
REMARK  156  A    between atoms: _378  and  _381
REMARK  157  A    between atoms: _381  and  _382
REMARK  158  A    between atoms: _382  and  _383
REMARK  159  A    between atoms: _386  and  _388
REMARK  160  A    between atoms: _388  and  _389
REMARK  161  A    between atoms: _388  and  _391
REMARK  162  A    between atoms: _391  and  _392
REMARK  163  A    between atoms: _392  and  _393
REMARK  164  A    between atoms: _393  and  _394
REMARK  165  A    between atoms: _394  and  _395
REMARK  166  A    between atoms: _399  and  _401
REMARK  167  A    between atoms: _401  and  _402
REMARK  168  A    between atoms: _401  and  _404
REMARK  169  A    between atoms: _404  and  _405
REMARK  170  A    between atoms: _405  and  _406
REMARK  171  A    between atoms: _408  and  _410
REMARK  172  A    between atoms: _410  and  _411
REMARK  173  A    between atoms: _410  and  _413
REMARK  174  A    between atoms: _413  and  _414
REMARK  175  A    between atoms: _417  and  _419
REMARK  176  A    between atoms: _419  and  _420
REMARK  177  A    between atoms: _419  and  _422
REMARK  178  A    between atoms: _425  and  _427
REMARK  179  A    between atoms: _427  and  _428
REMARK  180  A    between atoms: _430  and  _432
REMARK  181  A    between atoms: _432  and  _433
REMARK  182  A    between atoms: _432  and  _435
REMARK  183  A    between atoms: _435  and  _436
REMARK  184  A    between atoms: _439  and  _441
REMARK  185  A    between atoms: _441  and  _442
REMARK  186  A    between atoms: _444  and  _446
REMARK  187  A    between atoms: _446  and  _447
REMARK  188  A    between atoms: _449  and  _451
REMARK  189  A    between atoms: _451  and  _452
REMARK  190  A    between atoms: _451  and  _454
REMARK  191  A    between atoms: _457  and  _459
REMARK  192  A    between atoms: _459  and  _460
REMARK  193  A    between atoms: _459  and  _462
REMARK  194  A    between atoms: _465  and  _467
REMARK  195  A    between atoms: _467  and  _468
REMARK  196  A    between atoms: _467  and  _470
REMARK  197  A    between atoms: _470  and  _471
REMARK  198  A    between atoms: _475  and  _476
REMARK  199  A    between atoms: _481  and  _483
REMARK  200  A    between atoms: _483  and  _484
REMARK  201  A    between atoms: _483  and  _486
REMARK  202  A    between atoms: _486  and  _487
REMARK  203  A    between atoms: _491  and  _492
REMARK  204  A    between atoms: _497  and  _499
REMARK  205  A    between atoms: _499  and  _500
REMARK  206  A    between atoms: _503  and  _505
REMARK  207  A    between atoms: _505  and  _506
REMARK  208  A    between atoms: _505  and  _508
REMARK  209  A    between atoms: _508  and  _509
REMARK  210  A    between atoms: _514  and  _516
REMARK  211  A    between atoms: _516  and  _517
REMARK  212  A    between atoms: _516  and  _519
REMARK  213  A    between atoms: _519  and  _520
REMARK  214  A    between atoms: _523  and  _525
REMARK  215  A    between atoms: _525  and  _526
REMARK  216  A    between atoms: _525  and  _528
REMARK  217  A    between atoms: _528  and  _529
REMARK  218  A    between atoms: _532  and  _534
REMARK  219  A    between atoms: _534  and  _535
REMARK  220  A    between atoms: _537  and  _539
REMARK  221  A    between atoms: _539  and  _540
REMARK  222  A    between atoms: _539  and  _542
REMARK  223  A    between atoms: _542  and  _543
REMARK  224  A    between atoms: _543  and  _544
REMARK  225  A    between atoms: _544  and  _545
REMARK  226  A    between atoms: _554  and  _556
REMARK  227  A    between atoms: _556  and  _557
REMARK  228  A    between atoms: _556  and  _559
REMARK  229  A    between atoms: _559  and  _560
REMARK                            x       y       z     vdW  Elec       q    Type
REMARK                         _______ _______ _______ _____ _____    ______ ____
ROOT
ATOM      1  O   HOH     1      16.802 -17.605  38.522  0.00  0.00    +0.000 OA
ENDROOT
TORSDOF 0
