REMARK  Name = ../refined-set-2016/3f1a/3f1a_pocket.pdb
REMARK  148 active torsions:
REMARK  status: ('A' for Active; 'I' for Inactive)
REMARK    1  A    between atoms: _1  and  _3
REMARK    2  A    between atoms: _3  and  _4
REMARK    3  A    between atoms: _3  and  _6
REMARK    4  A    between atoms: _6  and  _7
REMARK    5  A    between atoms: _13  and  _15
REMARK    6  A    between atoms: _15  and  _16
REMARK    7  A    between atoms: _15  and  _18
REMARK    8  A    between atoms: _18  and  _19
REMARK    9  A    between atoms: _22  and  _24
REMARK   10  A    between atoms: _24  and  _25
REMARK   11  A    between atoms: _27  and  _29
REMARK   12  A    between atoms: _29  and  _30
REMARK   13  A    between atoms: _32  and  _34
REMARK   14  A    between atoms: _34  and  _35
REMARK   15  A    between atoms: _34  and  _37
REMARK   16  A    between atoms: _35  and  _36
REMARK   17  A    between atoms: _35  and  _41
REMARK   18  A    between atoms: _36  and  CA_356
REMARK   19  A    between atoms: _37  and  _38
REMARK   20  A    between atoms: _41  and  _43
REMARK   21  A    between atoms: _43  and  _44
REMARK   22  A    between atoms: _43  and  _46
REMARK   23  A    between atoms: _46  and  _47
REMARK   24  A    between atoms: _50  and  _52
REMARK   25  A    between atoms: _52  and  _53
REMARK   26  A    between atoms: _56  and  _58
REMARK   27  A    between atoms: _58  and  _59
REMARK   28  A    between atoms: _58  and  _61
REMARK   29  A    between atoms: _61  and  _62
REMARK   30  A    between atoms: _67  and  _69
REMARK   31  A    between atoms: _69  and  _70
REMARK   32  A    between atoms: _73  and  _75
REMARK   33  A    between atoms: _75  and  _76
REMARK   34  A    between atoms: _75  and  _78
REMARK   35  A    between atoms: _78  and  _79
REMARK   36  A    between atoms: _85  and  _87
REMARK   37  A    between atoms: _87  and  _88
REMARK   38  A    between atoms: _87  and  _90
REMARK   39  A    between atoms: _90  and  _91
REMARK   40  A    between atoms: _96  and  _98
REMARK   41  A    between atoms: _98  and  _99
REMARK   42  A    between atoms: _98  and  _101
REMARK   43  A    between atoms: _101  and  _102
REMARK   44  A    between atoms: _108  and  _110
REMARK   45  A    between atoms: _110  and  _111
REMARK   46  A    between atoms: _110  and  _113
REMARK   47  A    between atoms: _113  and  _114
REMARK   48  A    between atoms: _117  and  _119
REMARK   49  A    between atoms: _119  and  _120
REMARK   50  A    between atoms: _119  and  _122
REMARK   51  A    between atoms: _122  and  _123
REMARK   52  A    between atoms: _123  and  _124
REMARK   53  A    between atoms: _124  and  _126
REMARK   54  A    between atoms: _126  and  CA_356
REMARK   55  A    between atoms: _127  and  _129
REMARK   56  A    between atoms: _129  and  _130
REMARK   57  A    between atoms: _129  and  _132
REMARK   58  A    between atoms: _132  and  _133
REMARK   59  A    between atoms: _143  and  _145
REMARK   60  A    between atoms: _145  and  _146
REMARK   61  A    between atoms: _145  and  _148
REMARK   62  A    between atoms: _148  and  _149
REMARK   63  A    between atoms: _152  and  _154
REMARK   64  A    between atoms: _154  and  _155
REMARK   65  A    between atoms: _154  and  _157
REMARK   66  A    between atoms: _157  and  _158
REMARK   67  A    between atoms: _163  and  _165
REMARK   68  A    between atoms: _165  and  _166
REMARK   69  A    between atoms: _165  and  _168
REMARK   70  A    between atoms: _168  and  _169
REMARK   71  A    between atoms: _172  and  _174
REMARK   72  A    between atoms: _174  and  _175
REMARK   73  A    between atoms: _174  and  _177
REMARK   74  A    between atoms: _177  and  _178
REMARK   75  A    between atoms: _181  and  _183
REMARK   76  A    between atoms: _183  and  _184
REMARK   77  A    between atoms: _187  and  _189
REMARK   78  A    between atoms: _189  and  _190
REMARK   79  A    between atoms: _189  and  _192
REMARK   80  A    between atoms: _195  and  _197
REMARK   81  A    between atoms: _197  and  _198
REMARK   82  A    between atoms: _197  and  _200
REMARK   83  A    between atoms: _200  and  _201
REMARK   84  A    between atoms: _205  and  ZN_355
REMARK   85  A    between atoms: _206  and  _208
REMARK   86  A    between atoms: _208  and  _209
REMARK   87  A    between atoms: _208  and  _211
REMARK   88  A    between atoms: _211  and  _212
REMARK   89  A    between atoms: _212  and  _213
REMARK   90  A    between atoms: _216  and  _218
REMARK   91  A    between atoms: _218  and  _219
REMARK   92  A    between atoms: _218  and  _221
REMARK   93  A    between atoms: _221  and  _222
REMARK   94  A    between atoms: _225  and  _227
REMARK   95  A    between atoms: _227  and  _228
REMARK   96  A    between atoms: _227  and  _230
REMARK   97  A    between atoms: _230  and  _231
REMARK   98  A    between atoms: _235  and  ZN_355
REMARK   99  A    between atoms: _236  and  _238
REMARK  100  A    between atoms: _238  and  _239
REMARK  101  A    between atoms: _238  and  _241
REMARK  102  A    between atoms: _241  and  _242
REMARK  103  A    between atoms: _244  and  _246
REMARK  104  A    between atoms: _246  and  _247
REMARK  105  A    between atoms: _246  and  _249
REMARK  106  A    between atoms: _249  and  _250
REMARK  107  A    between atoms: _253  and  _255
REMARK  108  A    between atoms: _255  and  _256
REMARK  109  A    between atoms: _258  and  _260
REMARK  110  A    between atoms: _260  and  _261
REMARK  111  A    between atoms: _260  and  _263
REMARK  112  A    between atoms: _263  and  _264
REMARK  113  A    between atoms: _268  and  ZN_355
REMARK  114  A    between atoms: _269  and  _271
REMARK  115  A    between atoms: _271  and  _272
REMARK  116  A    between atoms: _271  and  _274
REMARK  117  A    between atoms: _274  and  _275
REMARK  118  A    between atoms: _277  and  _279
REMARK  119  A    between atoms: _279  and  _280
REMARK  120  A    between atoms: _283  and  _285
REMARK  121  A    between atoms: _285  and  _286
REMARK  122  A    between atoms: _285  and  _288
REMARK  123  A    between atoms: _291  and  _293
REMARK  124  A    between atoms: _293  and  _294
REMARK  125  A    between atoms: _293  and  _296
REMARK  126  A    between atoms: _296  and  _297
REMARK  127  A    between atoms: _297  and  _298
REMARK  128  A    between atoms: _300  and  _302
REMARK  129  A    between atoms: _302  and  _303
REMARK  130  A    between atoms: _302  and  _305
REMARK  131  A    between atoms: _305  and  _306
REMARK  132  A    between atoms: _313  and  _314
REMARK  133  A    between atoms: _319  and  _321
REMARK  134  A    between atoms: _321  and  _322
REMARK  135  A    between atoms: _321  and  _324
REMARK  136  A    between atoms: _324  and  _325
REMARK  137  A    between atoms: _328  and  _330
REMARK  138  A    between atoms: _330  and  _331
REMARK  139  A    between atoms: _330  and  _333
REMARK  140  A    between atoms: _333  and  _334
REMARK  141  A    between atoms: _339  and  _340
REMARK  142  A    between atoms: _342  and  _344
REMARK  143  A    between atoms: _344  and  _345
REMARK  144  A    between atoms: _344  and  _347
REMARK  145  A    between atoms: _347  and  _348
REMARK  146  A    between atoms: _348  and  _349
REMARK  147  A    between atoms: _349  and  _350
REMARK  148  A    between atoms: _350  and  _351
REMARK                            x       y       z     vdW  Elec       q    Type
REMARK                         _______ _______ _______ _____ _____    ______ ____
ROOT
ATOM      1  C   PHE A   1       9.730  -5.232  -3.934  0.00  0.00    +0.239 C 
ATOM      2  O   PHE A   1      10.823  -5.025  -3.391  0.00  0.00    -0.274 OA
ATOM      3  N   ASP A   2       9.107  -6.409  -3.918  0.00  0.00    -0.298 N 
ATOM      4  H   ASP A   2       8.377  -6.590  -4.637  0.00  0.00    +0.150 HD
ENDROOT
BRANCH   1   5
ATOM      5  CA  PHE A   1       9.002  -4.104  -4.678  0.00  0.00    +0.149 C 
BRANCH   5   6
ATOM      6  N   PHE A   1       9.610  -2.805  -4.416  0.00  0.00    -0.238 NA
ATOM      7  H   PHE A   1      10.252  -2.387  -5.120  0.00  0.00    +0.142 HD
ENDBRANCH   5   6
BRANCH   5   8
ATOM      8  CB  PHE A   1       8.922  -4.390  -6.179  0.00  0.00    +0.053 C 
BRANCH   8   9
ATOM      9  CG  PHE A   1       7.864  -3.590  -6.914  0.00  0.00    -0.020 A 
ATOM     10  CD2 PHE A   1       6.547  -3.522  -6.453  0.00  0.00    -0.004 A 
ATOM     11  CE2 PHE A   1       5.578  -2.777  -7.156  0.00  0.00    -0.000 A 
ATOM     12  CZ  PHE A   1       5.929  -2.123  -8.331  0.00  0.00    -0.000 A 
ATOM     13  CE1 PHE A   1       7.232  -2.187  -8.800  0.00  0.00    -0.000 A 
ATOM     14  CD1 PHE A   1       8.195  -2.921  -8.088  0.00  0.00    -0.004 A 
ENDBRANCH   8   9
ENDBRANCH   5   8
ENDBRANCH   1   5
BRANCH   3  15
ATOM     15  CA  ASP A   2       9.395  -7.465  -2.940  0.00  0.00    +0.148 C 
BRANCH  15  16
ATOM     16  C   ASP A   2       9.736  -8.820  -3.566  0.00  0.00    +0.227 C 
ATOM     17  O   ASP A   2       9.613  -9.857  -2.911  0.00  0.00    -0.286 OA
ENDBRANCH  15  16
BRANCH  15  18
ATOM     18  CB  ASP A   2       8.198  -7.626  -1.986  0.00  0.00    +0.142 C 
BRANCH  18  19
ATOM     19  CG  ASP A   2       6.884  -7.922  -2.714  0.00  0.00    +0.367 C 
ATOM     20  OD2 ASP A   2       5.866  -8.169  -2.034  0.00  0.00    -0.246 OA
ATOM     21  OD1 ASP A   2       6.858  -7.914  -3.967  0.00  0.00    -0.246 OA
ENDBRANCH  18  19
ENDBRANCH  15  18
ENDBRANCH   3  15
TORSDOF 8
REMARK  Name = ../refined-set-2016/3f1a/3f1a_pocket.pdb
REMARK  148 active torsions:
REMARK  status: ('A' for Active; 'I' for Inactive)
REMARK    1  A    between atoms: _1  and  _3
REMARK    2  A    between atoms: _3  and  _4
REMARK    3  A    between atoms: _3  and  _6
REMARK    4  A    between atoms: _6  and  _7
REMARK    5  A    between atoms: _13  and  _15
REMARK    6  A    between atoms: _15  and  _16
REMARK    7  A    between atoms: _15  and  _18
REMARK    8  A    between atoms: _18  and  _19
REMARK    9  A    between atoms: _22  and  _24
REMARK   10  A    between atoms: _24  and  _25
REMARK   11  A    between atoms: _27  and  _29
REMARK   12  A    between atoms: _29  and  _30
REMARK   13  A    between atoms: _32  and  _34
REMARK   14  A    between atoms: _34  and  _35
REMARK   15  A    between atoms: _34  and  _37
REMARK   16  A    between atoms: _35  and  _36
REMARK   17  A    between atoms: _35  and  _41
REMARK   18  A    between atoms: _36  and  CA_356
REMARK   19  A    between atoms: _37  and  _38
REMARK   20  A    between atoms: _41  and  _43
REMARK   21  A    between atoms: _43  and  _44
REMARK   22  A    between atoms: _43  and  _46
REMARK   23  A    between atoms: _46  and  _47
REMARK   24  A    between atoms: _50  and  _52
REMARK   25  A    between atoms: _52  and  _53
REMARK   26  A    between atoms: _56  and  _58
REMARK   27  A    between atoms: _58  and  _59
REMARK   28  A    between atoms: _58  and  _61
REMARK   29  A    between atoms: _61  and  _62
REMARK   30  A    between atoms: _67  and  _69
REMARK   31  A    between atoms: _69  and  _70
REMARK   32  A    between atoms: _73  and  _75
REMARK   33  A    between atoms: _75  and  _76
REMARK   34  A    between atoms: _75  and  _78
REMARK   35  A    between atoms: _78  and  _79
REMARK   36  A    between atoms: _85  and  _87
REMARK   37  A    between atoms: _87  and  _88
REMARK   38  A    between atoms: _87  and  _90
REMARK   39  A    between atoms: _90  and  _91
REMARK   40  A    between atoms: _96  and  _98
REMARK   41  A    between atoms: _98  and  _99
REMARK   42  A    between atoms: _98  and  _101
REMARK   43  A    between atoms: _101  and  _102
REMARK   44  A    between atoms: _108  and  _110
REMARK   45  A    between atoms: _110  and  _111
REMARK   46  A    between atoms: _110  and  _113
REMARK   47  A    between atoms: _113  and  _114
REMARK   48  A    between atoms: _117  and  _119
REMARK   49  A    between atoms: _119  and  _120
REMARK   50  A    between atoms: _119  and  _122
REMARK   51  A    between atoms: _122  and  _123
REMARK   52  A    between atoms: _123  and  _124
REMARK   53  A    between atoms: _124  and  _126
REMARK   54  A    between atoms: _126  and  CA_356
REMARK   55  A    between atoms: _127  and  _129
REMARK   56  A    between atoms: _129  and  _130
REMARK   57  A    between atoms: _129  and  _132
REMARK   58  A    between atoms: _132  and  _133
REMARK   59  A    between atoms: _143  and  _145
REMARK   60  A    between atoms: _145  and  _146
REMARK   61  A    between atoms: _145  and  _148
REMARK   62  A    between atoms: _148  and  _149
REMARK   63  A    between atoms: _152  and  _154
REMARK   64  A    between atoms: _154  and  _155
REMARK   65  A    between atoms: _154  and  _157
REMARK   66  A    between atoms: _157  and  _158
REMARK   67  A    between atoms: _163  and  _165
REMARK   68  A    between atoms: _165  and  _166
REMARK   69  A    between atoms: _165  and  _168
REMARK   70  A    between atoms: _168  and  _169
REMARK   71  A    between atoms: _172  and  _174
REMARK   72  A    between atoms: _174  and  _175
REMARK   73  A    between atoms: _174  and  _177
REMARK   74  A    between atoms: _177  and  _178
REMARK   75  A    between atoms: _181  and  _183
REMARK   76  A    between atoms: _183  and  _184
REMARK   77  A    between atoms: _187  and  _189
REMARK   78  A    between atoms: _189  and  _190
REMARK   79  A    between atoms: _189  and  _192
REMARK   80  A    between atoms: _195  and  _197
REMARK   81  A    between atoms: _197  and  _198
REMARK   82  A    between atoms: _197  and  _200
REMARK   83  A    between atoms: _200  and  _201
REMARK   84  A    between atoms: _205  and  ZN_355
REMARK   85  A    between atoms: _206  and  _208
REMARK   86  A    between atoms: _208  and  _209
REMARK   87  A    between atoms: _208  and  _211
REMARK   88  A    between atoms: _211  and  _212
REMARK   89  A    between atoms: _212  and  _213
REMARK   90  A    between atoms: _216  and  _218
REMARK   91  A    between atoms: _218  and  _219
REMARK   92  A    between atoms: _218  and  _221
REMARK   93  A    between atoms: _221  and  _222
REMARK   94  A    between atoms: _225  and  _227
REMARK   95  A    between atoms: _227  and  _228
REMARK   96  A    between atoms: _227  and  _230
REMARK   97  A    between atoms: _230  and  _231
REMARK   98  A    between atoms: _235  and  ZN_355
REMARK   99  A    between atoms: _236  and  _238
REMARK  100  A    between atoms: _238  and  _239
REMARK  101  A    between atoms: _238  and  _241
REMARK  102  A    between atoms: _241  and  _242
REMARK  103  A    between atoms: _244  and  _246
REMARK  104  A    between atoms: _246  and  _247
REMARK  105  A    between atoms: _246  and  _249
REMARK  106  A    between atoms: _249  and  _250
REMARK  107  A    between atoms: _253  and  _255
REMARK  108  A    between atoms: _255  and  _256
REMARK  109  A    between atoms: _258  and  _260
REMARK  110  A    between atoms: _260  and  _261
REMARK  111  A    between atoms: _260  and  _263
REMARK  112  A    between atoms: _263  and  _264
REMARK  113  A    between atoms: _268  and  ZN_355
REMARK  114  A    between atoms: _269  and  _271
REMARK  115  A    between atoms: _271  and  _272
REMARK  116  A    between atoms: _271  and  _274
REMARK  117  A    between atoms: _274  and  _275
REMARK  118  A    between atoms: _277  and  _279
REMARK  119  A    between atoms: _279  and  _280
REMARK  120  A    between atoms: _283  and  _285
REMARK  121  A    between atoms: _285  and  _286
REMARK  122  A    between atoms: _285  and  _288
REMARK  123  A    between atoms: _291  and  _293
REMARK  124  A    between atoms: _293  and  _294
REMARK  125  A    between atoms: _293  and  _296
REMARK  126  A    between atoms: _296  and  _297
REMARK  127  A    between atoms: _297  and  _298
REMARK  128  A    between atoms: _300  and  _302
REMARK  129  A    between atoms: _302  and  _303
REMARK  130  A    between atoms: _302  and  _305
REMARK  131  A    between atoms: _305  and  _306
REMARK  132  A    between atoms: _313  and  _314
REMARK  133  A    between atoms: _319  and  _321
REMARK  134  A    between atoms: _321  and  _322
REMARK  135  A    between atoms: _321  and  _324
REMARK  136  A    between atoms: _324  and  _325
REMARK  137  A    between atoms: _328  and  _330
REMARK  138  A    between atoms: _330  and  _331
REMARK  139  A    between atoms: _330  and  _333
REMARK  140  A    between atoms: _333  and  _334
REMARK  141  A    between atoms: _339  and  _340
REMARK  142  A    between atoms: _342  and  _344
REMARK  143  A    between atoms: _344  and  _345
REMARK  144  A    between atoms: _344  and  _347
REMARK  145  A    between atoms: _347  and  _348
REMARK  146  A    between atoms: _348  and  _349
REMARK  147  A    between atoms: _349  and  _350
REMARK  148  A    between atoms: _350  and  _351
REMARK                            x       y       z     vdW  Elec       q    Type
REMARK                         _______ _______ _______ _____ _____    ______ ____
ROOT
ATOM      1  C   UNK A   1       2.322  -7.059  -7.851  0.00  0.00    +0.000 C 
ENDROOT
BRANCH   1   2
ATOM      2  C   UNK A   1       2.545  -5.730  -8.569  0.00  0.00    +0.000 C 
ATOM      3  N   ALA A   2       1.975  -4.665  -8.008  0.00  0.00    +0.000 N 
ATOM      4  H   ALA A   2       1.525  -4.774  -7.077  0.00  0.00    +0.000 HD
ATOM      5  O   UNK A   1       3.210  -5.673  -9.612  0.00  0.00    +0.000 OA
BRANCH   3   6
ATOM      6  CA  ALA A   2       1.955  -3.352  -8.644  0.00  0.00    +0.000 C 
ATOM      7  CB  ALA A   2       0.999  -3.356  -9.839  0.00  0.00    +0.000 C 
BRANCH   6   8
ATOM      8  C   ALA A   2       1.497  -2.335  -7.629  0.00  0.00    +0.000 C 
ATOM      9  O   ALA A   2       0.896  -2.691  -6.622  0.00  0.00    +0.000 OA
ATOM     10  N   HIS A   3       1.784  -1.067  -7.896  0.00  0.00    +0.000 N 
ATOM     11  H   HIS A   3       2.416  -0.847  -8.692  0.00  0.00    +0.000 HD
BRANCH  10  12
ATOM     12  CA  HIS A   3       1.233   0.029  -7.097  0.00  0.00    +0.000 C 
BRANCH  12  13
ATOM     13  C   HIS A   3       1.123   1.270  -7.977  0.00  0.00    +0.000 C 
ATOM     14  N   ALA A   4       0.276   2.212  -7.577  0.00  0.00    +0.000 N 
ATOM     15  H   ALA A   4      -0.244   2.088  -6.685  0.00  0.00    +0.000 HD
ATOM     16  O   HIS A   3       1.782   1.363  -9.018  0.00  0.00    +0.000 OA
BRANCH  14  17
ATOM     17  CA  ALA A   4       0.065   3.414  -8.368  0.00  0.00    +0.000 C 
ATOM     18  CB  ALA A   4      -1.065   3.208  -9.380  0.00  0.00    +0.000 C 
BRANCH  17  19
ATOM     19  C   ALA A   4      -0.219   4.598  -7.465  0.00  0.00    +0.000 C 
ATOM     20  O   ALA A   4      -0.596   4.433  -6.302  0.00  0.00    +0.000 OA
ATOM     21  N   PHE A   5      -0.024   5.789  -8.009  0.00  0.00    +0.000 N 
ATOM     22  H   PHE A   5       0.270   5.846  -9.005  0.00  0.00    +0.000 HD
BRANCH  21  23
ATOM     23  CA  PHE A   5      -0.208   7.020  -7.258  0.00  0.00    +0.000 C 
BRANCH  23  24
ATOM     24  C   PHE A   5      -1.453   7.749  -7.733  0.00  0.00    +0.000 C 
ATOM     25  O   PHE A   5      -1.753   7.761  -8.926  0.00  0.00    +0.000 OA
ENDBRANCH  23  24
BRANCH  23  26
ATOM     26  CB  PHE A   5       1.018   7.914  -7.413  0.00  0.00    +0.000 C 
BRANCH  26  27
ATOM     27  CG  PHE A   5       2.293   7.278  -6.934  0.00  0.00    +0.000 A 
ATOM     28  CD2 PHE A   5       2.691   7.397  -5.604  0.00  0.00    +0.000 A 
ATOM     29  CE2 PHE A   5       3.884   6.810  -5.158  0.00  0.00    +0.000 A 
ATOM     30  CZ  PHE A   5       4.684   6.102  -6.049  0.00  0.00    +0.000 A 
ATOM     31  CE1 PHE A   5       4.293   5.972  -7.376  0.00  0.00    +0.000 A 
ATOM     32  CD1 PHE A   5       3.102   6.561  -7.811  0.00  0.00    +0.000 A 
ENDBRANCH  26  27
ENDBRANCH  23  26
ENDBRANCH  21  23
ENDBRANCH  17  19
ENDBRANCH  14  17
ENDBRANCH  12  13
BRANCH  12  33
ATOM     33  CB  HIS A   3       2.068   0.291  -5.832  0.00  0.00    +0.000 C 
BRANCH  33  34
ATOM     34  CG  HIS A   3       3.338   1.036  -6.086  0.00  0.00    +0.000 A 
ATOM     35  ND1 HIS A   3       3.479   2.377  -5.793  0.00  0.00    +0.000 NA
ATOM     36  CE1 HIS A   3       4.694   2.770  -6.127  0.00  0.00    +0.000 A 
ATOM     37  NE2 HIS A   3       5.345   1.734  -6.632  0.00  0.00    +0.000 NA
ATOM     38  CD2 HIS A   3       4.515   0.642  -6.625  0.00  0.00    +0.000 A 
ENDBRANCH  33  34
ENDBRANCH  12  33
ENDBRANCH  10  12
ENDBRANCH   6   8
ENDBRANCH   3   6
ENDBRANCH   1   2
BRANCH   1  39
ATOM     39  N   UNK A   1       2.252  -6.885  -6.402  0.00  0.00    +0.000 NA
ATOM     40  H   UNK A   1       1.348  -6.594  -5.978  0.00  0.00    +0.000 HD
BRANCH  39  41
ATOM     41  C   UNK A   0       3.296  -7.083  -5.602  0.00  0.00    +0.000 C 
BRANCH  41  42
ATOM     42  C   UNK A   0       3.044  -6.875  -4.112  0.00  0.00    +0.000 C 
BRANCH  42  44
ATOM     43  C   UNK A   0       2.751  -9.210  -3.477  0.00  0.00    +0.000 C 
ATOM     44  N   UNK A   0       3.443  -8.081  -3.369  0.00  0.00    +0.000 N 
ATOM     45  H   UNK A   0       4.279  -8.049  -2.751  0.00  0.00    +0.000 HD
ATOM     46  O   UNK A   0       1.741  -9.320  -4.175  0.00  0.00    +0.000 OA
BRANCH  43  47
ATOM     47  C   UNK A   0       3.268 -10.398  -2.685  0.00  0.00    +0.000 C 
BRANCH  47  49
ATOM     48  C   UNK A   0       4.449 -11.470  -4.526  0.00  0.00    +0.000 C 
ATOM     49  N   UNK A   0       3.545 -11.542  -3.553  0.00  0.00    +0.000 N 
ATOM     50  H   UNK A   0       3.024 -12.430  -3.406  0.00  0.00    +0.000 HD
ATOM     51  O   UNK A   0       5.092 -10.446  -4.767  0.00  0.00    +0.000 OA
BRANCH  48  52
ATOM     52  C   UNK A   0       4.663 -12.733  -5.335  0.00  0.00    +0.000 C 
BRANCH  52  53
ATOM     53  N   UNK A   0       5.764 -12.606  -6.286  0.00  0.00    +0.000 NA
ATOM     54  H   UNK A   0       5.553 -12.322  -7.264  0.00  0.00    +0.000 HD
ENDBRANCH  52  53
ENDBRANCH  48  52
ENDBRANCH  47  49
ENDBRANCH  43  47
ENDBRANCH  42  44
BRANCH  42  55
ATOM     55  C   UNK A   0       3.807  -5.608  -3.643  0.00  0.00    +0.000 C 
ATOM     56  C   UNK A   0       3.448  -4.390  -4.514  0.00  0.00    +0.000 C 
BRANCH  55  57
ATOM     57  C   UNK A   0       3.574  -5.326  -2.151  0.00  0.00    +0.000 C 
ATOM     58  C   UNK A   0       2.121  -5.261  -1.726  0.00  0.00    +0.000 C 
ENDBRANCH  55  57
ENDBRANCH  42  55
ENDBRANCH  41  42
BRANCH  41  59
ATOM     59  O   UNK A   0       4.415  -7.418  -6.010  0.00  0.00    +0.000 OA
BRANCH  59  60
ATOM     60 CA   UNK A   0       6.225  -8.795  -6.018  0.00  0.00    +0.000 Ca
BRANCH  60  61
ATOM     61  O   UNK A   1       5.478  -9.688  -7.920  0.00  0.00    +0.000 OA
BRANCH  61  62
ATOM     62  C   UNK A   1       5.031 -10.336  -8.884  0.00  0.00    +0.000 C 
ATOM     63  O   UNK A   1       4.853 -11.572  -8.867  0.00  0.00    +0.000 OA
BRANCH  62  64
ATOM     64  C   UNK A   1       4.668  -9.545 -10.110  0.00  0.00    +0.000 C 
BRANCH  64  65
ATOM     65  C   UNK A   1       4.866 -10.291 -11.417  0.00  0.00    +0.000 C 
BRANCH  65  66
ATOM     66  C   UNK A   1       6.196 -11.046 -11.556  0.00  0.00    +0.000 C 
BRANCH  66  67
ATOM     67  C   UNK A   1       6.382 -11.477 -13.001  0.00  0.00    +0.000 C 
ATOM     68  O   UNK A   1       7.203 -10.905 -13.715  0.00  0.00    +0.000 OA
ENDBRANCH  66  67
BRANCH  66  69
ATOM     69  N   UNK A   1       7.335 -10.225 -11.143  0.00  0.00    +0.000 NA
ATOM     70  H   UNK A   1       7.254  -9.188 -11.154  0.00  0.00    +0.000 HD
ENDBRANCH  66  69
ENDBRANCH  65  66
ENDBRANCH  64  65
ENDBRANCH  62  64
ENDBRANCH  61  62
ENDBRANCH  60  61
ENDBRANCH  59  60
ENDBRANCH  41  59
ENDBRANCH  39  41
ENDBRANCH   1  39
BRANCH   1  71
ATOM     71  C   UNK A   1       1.049  -7.743  -8.365  0.00  0.00    +0.000 C 
BRANCH  71  72
ATOM     72  C   UNK A   1       0.614  -9.022  -7.635  0.00  0.00    +0.000 C 
ATOM     73  C   UNK A   1       1.682 -10.133  -7.748  0.00  0.00    +0.000 C 
ATOM     74  C   UNK A   1      -0.716  -9.510  -8.155  0.00  0.00    +0.000 C 
ENDBRANCH  71  72
ENDBRANCH   1  71
TORSDOF 34
REMARK  Name = ../refined-set-2016/3f1a/3f1a_pocket.pdb
REMARK  148 active torsions:
REMARK  status: ('A' for Active; 'I' for Inactive)
REMARK    1  A    between atoms: _1  and  _3
REMARK    2  A    between atoms: _3  and  _4
REMARK    3  A    between atoms: _3  and  _6
REMARK    4  A    between atoms: _6  and  _7
REMARK    5  A    between atoms: _13  and  _15
REMARK    6  A    between atoms: _15  and  _16
REMARK    7  A    between atoms: _15  and  _18
REMARK    8  A    between atoms: _18  and  _19
REMARK    9  A    between atoms: _22  and  _24
REMARK   10  A    between atoms: _24  and  _25
REMARK   11  A    between atoms: _27  and  _29
REMARK   12  A    between atoms: _29  and  _30
REMARK   13  A    between atoms: _32  and  _34
REMARK   14  A    between atoms: _34  and  _35
REMARK   15  A    between atoms: _34  and  _37
REMARK   16  A    between atoms: _35  and  _36
REMARK   17  A    between atoms: _35  and  _41
REMARK   18  A    between atoms: _36  and  CA_356
REMARK   19  A    between atoms: _37  and  _38
REMARK   20  A    between atoms: _41  and  _43
REMARK   21  A    between atoms: _43  and  _44
REMARK   22  A    between atoms: _43  and  _46
REMARK   23  A    between atoms: _46  and  _47
REMARK   24  A    between atoms: _50  and  _52
REMARK   25  A    between atoms: _52  and  _53
REMARK   26  A    between atoms: _56  and  _58
REMARK   27  A    between atoms: _58  and  _59
REMARK   28  A    between atoms: _58  and  _61
REMARK   29  A    between atoms: _61  and  _62
REMARK   30  A    between atoms: _67  and  _69
REMARK   31  A    between atoms: _69  and  _70
REMARK   32  A    between atoms: _73  and  _75
REMARK   33  A    between atoms: _75  and  _76
REMARK   34  A    between atoms: _75  and  _78
REMARK   35  A    between atoms: _78  and  _79
REMARK   36  A    between atoms: _85  and  _87
REMARK   37  A    between atoms: _87  and  _88
REMARK   38  A    between atoms: _87  and  _90
REMARK   39  A    between atoms: _90  and  _91
REMARK   40  A    between atoms: _96  and  _98
REMARK   41  A    between atoms: _98  and  _99
REMARK   42  A    between atoms: _98  and  _101
REMARK   43  A    between atoms: _101  and  _102
REMARK   44  A    between atoms: _108  and  _110
REMARK   45  A    between atoms: _110  and  _111
REMARK   46  A    between atoms: _110  and  _113
REMARK   47  A    between atoms: _113  and  _114
REMARK   48  A    between atoms: _117  and  _119
REMARK   49  A    between atoms: _119  and  _120
REMARK   50  A    between atoms: _119  and  _122
REMARK   51  A    between atoms: _122  and  _123
REMARK   52  A    between atoms: _123  and  _124
REMARK   53  A    between atoms: _124  and  _126
REMARK   54  A    between atoms: _126  and  CA_356
REMARK   55  A    between atoms: _127  and  _129
REMARK   56  A    between atoms: _129  and  _130
REMARK   57  A    between atoms: _129  and  _132
REMARK   58  A    between atoms: _132  and  _133
REMARK   59  A    between atoms: _143  and  _145
REMARK   60  A    between atoms: _145  and  _146
REMARK   61  A    between atoms: _145  and  _148
REMARK   62  A    between atoms: _148  and  _149
REMARK   63  A    between atoms: _152  and  _154
REMARK   64  A    between atoms: _154  and  _155
REMARK   65  A    between atoms: _154  and  _157
REMARK   66  A    between atoms: _157  and  _158
REMARK   67  A    between atoms: _163  and  _165
REMARK   68  A    between atoms: _165  and  _166
REMARK   69  A    between atoms: _165  and  _168
REMARK   70  A    between atoms: _168  and  _169
REMARK   71  A    between atoms: _172  and  _174
REMARK   72  A    between atoms: _174  and  _175
REMARK   73  A    between atoms: _174  and  _177
REMARK   74  A    between atoms: _177  and  _178
REMARK   75  A    between atoms: _181  and  _183
REMARK   76  A    between atoms: _183  and  _184
REMARK   77  A    between atoms: _187  and  _189
REMARK   78  A    between atoms: _189  and  _190
REMARK   79  A    between atoms: _189  and  _192
REMARK   80  A    between atoms: _195  and  _197
REMARK   81  A    between atoms: _197  and  _198
REMARK   82  A    between atoms: _197  and  _200
REMARK   83  A    between atoms: _200  and  _201
REMARK   84  A    between atoms: _205  and  ZN_355
REMARK   85  A    between atoms: _206  and  _208
REMARK   86  A    between atoms: _208  and  _209
REMARK   87  A    between atoms: _208  and  _211
REMARK   88  A    between atoms: _211  and  _212
REMARK   89  A    between atoms: _212  and  _213
REMARK   90  A    between atoms: _216  and  _218
REMARK   91  A    between atoms: _218  and  _219
REMARK   92  A    between atoms: _218  and  _221
REMARK   93  A    between atoms: _221  and  _222
REMARK   94  A    between atoms: _225  and  _227
REMARK   95  A    between atoms: _227  and  _228
REMARK   96  A    between atoms: _227  and  _230
REMARK   97  A    between atoms: _230  and  _231
REMARK   98  A    between atoms: _235  and  ZN_355
REMARK   99  A    between atoms: _236  and  _238
REMARK  100  A    between atoms: _238  and  _239
REMARK  101  A    between atoms: _238  and  _241
REMARK  102  A    between atoms: _241  and  _242
REMARK  103  A    between atoms: _244  and  _246
REMARK  104  A    between atoms: _246  and  _247
REMARK  105  A    between atoms: _246  and  _249
REMARK  106  A    between atoms: _249  and  _250
REMARK  107  A    between atoms: _253  and  _255
REMARK  108  A    between atoms: _255  and  _256
REMARK  109  A    between atoms: _258  and  _260
REMARK  110  A    between atoms: _260  and  _261
REMARK  111  A    between atoms: _260  and  _263
REMARK  112  A    between atoms: _263  and  _264
REMARK  113  A    between atoms: _268  and  ZN_355
REMARK  114  A    between atoms: _269  and  _271
REMARK  115  A    between atoms: _271  and  _272
REMARK  116  A    between atoms: _271  and  _274
REMARK  117  A    between atoms: _274  and  _275
REMARK  118  A    between atoms: _277  and  _279
REMARK  119  A    between atoms: _279  and  _280
REMARK  120  A    between atoms: _283  and  _285
REMARK  121  A    between atoms: _285  and  _286
REMARK  122  A    between atoms: _285  and  _288
REMARK  123  A    between atoms: _291  and  _293
REMARK  124  A    between atoms: _293  and  _294
REMARK  125  A    between atoms: _293  and  _296
REMARK  126  A    between atoms: _296  and  _297
REMARK  127  A    between atoms: _297  and  _298
REMARK  128  A    between atoms: _300  and  _302
REMARK  129  A    between atoms: _302  and  _303
REMARK  130  A    between atoms: _302  and  _305
REMARK  131  A    between atoms: _305  and  _306
REMARK  132  A    between atoms: _313  and  _314
REMARK  133  A    between atoms: _319  and  _321
REMARK  134  A    between atoms: _321  and  _322
REMARK  135  A    between atoms: _321  and  _324
REMARK  136  A    between atoms: _324  and  _325
REMARK  137  A    between atoms: _328  and  _330
REMARK  138  A    between atoms: _330  and  _331
REMARK  139  A    between atoms: _330  and  _333
REMARK  140  A    between atoms: _333  and  _334
REMARK  141  A    between atoms: _339  and  _340
REMARK  142  A    between atoms: _342  and  _344
REMARK  143  A    between atoms: _344  and  _345
REMARK  144  A    between atoms: _344  and  _347
REMARK  145  A    between atoms: _347  and  _348
REMARK  146  A    between atoms: _348  and  _349
REMARK  147  A    between atoms: _349  and  _350
REMARK  148  A    between atoms: _350  and  _351
REMARK                            x       y       z     vdW  Elec       q    Type
REMARK                         _______ _______ _______ _____ _____    ______ ____
ROOT
ATOM      1  CA  PHE A   2       4.395  -3.038 -12.158  0.00  0.00    +0.153 C 
ENDROOT
BRANCH   1   4
ATOM      2  C   HIS A   1       4.032  -0.762 -11.300  0.00  0.00    +0.239 C 
ATOM      3  O   HIS A   1       3.257  -1.129 -10.419  0.00  0.00    -0.274 OA
ATOM      4  N   PHE A   2       4.641  -1.594 -12.139  0.00  0.00    -0.297 N 
ATOM      5  H   PHE A   2       5.326  -1.200 -12.815  0.00  0.00    +0.150 HD
BRANCH   2   6
ATOM      6  CA  HIS A   1       4.370   0.706 -11.456  0.00  0.00    +0.151 C 
BRANCH   6   7
ATOM      7  N   HIS A   1       3.152   1.505 -11.438  0.00  0.00    -0.238 NA
ATOM      8  H   HIS A   1       2.583   1.525 -10.567  0.00  0.00    +0.142 HD
ENDBRANCH   6   7
BRANCH   6   9
ATOM      9  CB  HIS A   1       5.296   1.123 -10.317  0.00  0.00    +0.074 C 
BRANCH   9  10
ATOM     10  CG  HIS A   1       5.764   2.544 -10.392  0.00  0.00    +0.082 A 
ATOM     11  ND1 HIS A   1       6.447   3.142  -9.357  0.00  0.00    -0.227 NA
ATOM     12  CE1 HIS A   1       6.745   4.384  -9.688  0.00  0.00    +0.199 A 
ATOM     13  NE2 HIS A   1       6.279   4.617 -10.903  0.00  0.00    -0.221 NA
ATOM     14  CD2 HIS A   1       5.661   3.479 -11.366  0.00  0.00    +0.115 A 
ENDBRANCH   9  10
ENDBRANCH   6   9
ENDBRANCH   2   6
ENDBRANCH   1   4
BRANCH   1  15
ATOM     15  C   PHE A   2       5.689  -3.761 -11.823  0.00  0.00    +0.241 C 
ATOM     16  N   ASP A   3       5.616  -4.694 -10.878  0.00  0.00    -0.298 N 
ATOM     17  H   ASP A   3       4.688  -4.915 -10.464  0.00  0.00    +0.150 HD
ATOM     18  O   PHE A   2       6.739  -3.460 -12.401  0.00  0.00    -0.273 OA
BRANCH  16  19
ATOM     19  CA  ASP A   3       6.791  -5.420 -10.400  0.00  0.00    +0.148 C 
BRANCH  19  20
ATOM     20  C   ASP A   3       7.309  -6.380 -11.471  0.00  0.00    +0.227 C 
ATOM     21  O   ASP A   3       6.646  -7.351 -11.832  0.00  0.00    -0.286 OA
ENDBRANCH  19  20
BRANCH  19  22
ATOM     22  CB  ASP A   3       6.447  -6.165  -9.104  0.00  0.00    +0.142 C 
BRANCH  22  23
ATOM     23  CG  ASP A   3       7.661  -6.772  -8.415  0.00  0.00    +0.367 C 
ATOM     24  OD2 ASP A   3       7.476  -7.267  -7.290  0.00  0.00    -0.246 OA
ATOM     25  OD1 ASP A   3       8.779  -6.764  -8.971  0.00  0.00    -0.246 OA
ENDBRANCH  22  23
ENDBRANCH  19  22
ENDBRANCH  16  19
ENDBRANCH   1  15
BRANCH   1  26
ATOM     26  CB  PHE A   2       3.851  -3.463 -13.526  0.00  0.00    +0.055 C 
BRANCH  26  27
ATOM     27  CG  PHE A   2       2.534  -2.827 -13.852  0.00  0.00    -0.020 A 
ATOM     28  CD2 PHE A   2       1.354  -3.508 -13.613  0.00  0.00    -0.004 A 
ATOM     29  CE2 PHE A   2       0.117  -2.907 -13.880  0.00  0.00    -0.000 A 
ATOM     30  CZ  PHE A   2       0.061  -1.612 -14.386  0.00  0.00    -0.000 A 
ATOM     31  CE1 PHE A   2       1.230  -0.910 -14.617  0.00  0.00    -0.000 A 
ATOM     32  CD1 PHE A   2       2.467  -1.523 -14.356  0.00  0.00    -0.004 A 
ENDBRANCH  26  27
ENDBRANCH   1  26
TORSDOF 12
REMARK  Name = ../refined-set-2016/3f1a/3f1a_pocket.pdb
REMARK  148 active torsions:
REMARK  status: ('A' for Active; 'I' for Inactive)
REMARK    1  A    between atoms: _1  and  _3
REMARK    2  A    between atoms: _3  and  _4
REMARK    3  A    between atoms: _3  and  _6
REMARK    4  A    between atoms: _6  and  _7
REMARK    5  A    between atoms: _13  and  _15
REMARK    6  A    between atoms: _15  and  _16
REMARK    7  A    between atoms: _15  and  _18
REMARK    8  A    between atoms: _18  and  _19
REMARK    9  A    between atoms: _22  and  _24
REMARK   10  A    between atoms: _24  and  _25
REMARK   11  A    between atoms: _27  and  _29
REMARK   12  A    between atoms: _29  and  _30
REMARK   13  A    between atoms: _32  and  _34
REMARK   14  A    between atoms: _34  and  _35
REMARK   15  A    between atoms: _34  and  _37
REMARK   16  A    between atoms: _35  and  _36
REMARK   17  A    between atoms: _35  and  _41
REMARK   18  A    between atoms: _36  and  CA_356
REMARK   19  A    between atoms: _37  and  _38
REMARK   20  A    between atoms: _41  and  _43
REMARK   21  A    between atoms: _43  and  _44
REMARK   22  A    between atoms: _43  and  _46
REMARK   23  A    between atoms: _46  and  _47
REMARK   24  A    between atoms: _50  and  _52
REMARK   25  A    between atoms: _52  and  _53
REMARK   26  A    between atoms: _56  and  _58
REMARK   27  A    between atoms: _58  and  _59
REMARK   28  A    between atoms: _58  and  _61
REMARK   29  A    between atoms: _61  and  _62
REMARK   30  A    between atoms: _67  and  _69
REMARK   31  A    between atoms: _69  and  _70
REMARK   32  A    between atoms: _73  and  _75
REMARK   33  A    between atoms: _75  and  _76
REMARK   34  A    between atoms: _75  and  _78
REMARK   35  A    between atoms: _78  and  _79
REMARK   36  A    between atoms: _85  and  _87
REMARK   37  A    between atoms: _87  and  _88
REMARK   38  A    between atoms: _87  and  _90
REMARK   39  A    between atoms: _90  and  _91
REMARK   40  A    between atoms: _96  and  _98
REMARK   41  A    between atoms: _98  and  _99
REMARK   42  A    between atoms: _98  and  _101
REMARK   43  A    between atoms: _101  and  _102
REMARK   44  A    between atoms: _108  and  _110
REMARK   45  A    between atoms: _110  and  _111
REMARK   46  A    between atoms: _110  and  _113
REMARK   47  A    between atoms: _113  and  _114
REMARK   48  A    between atoms: _117  and  _119
REMARK   49  A    between atoms: _119  and  _120
REMARK   50  A    between atoms: _119  and  _122
REMARK   51  A    between atoms: _122  and  _123
REMARK   52  A    between atoms: _123  and  _124
REMARK   53  A    between atoms: _124  and  _126
REMARK   54  A    between atoms: _126  and  CA_356
REMARK   55  A    between atoms: _127  and  _129
REMARK   56  A    between atoms: _129  and  _130
REMARK   57  A    between atoms: _129  and  _132
REMARK   58  A    between atoms: _132  and  _133
REMARK   59  A    between atoms: _143  and  _145
REMARK   60  A    between atoms: _145  and  _146
REMARK   61  A    between atoms: _145  and  _148
REMARK   62  A    between atoms: _148  and  _149
REMARK   63  A    between atoms: _152  and  _154
REMARK   64  A    between atoms: _154  and  _155
REMARK   65  A    between atoms: _154  and  _157
REMARK   66  A    between atoms: _157  and  _158
REMARK   67  A    between atoms: _163  and  _165
REMARK   68  A    between atoms: _165  and  _166
REMARK   69  A    between atoms: _165  and  _168
REMARK   70  A    between atoms: _168  and  _169
REMARK   71  A    between atoms: _172  and  _174
REMARK   72  A    between atoms: _174  and  _175
REMARK   73  A    between atoms: _174  and  _177
REMARK   74  A    between atoms: _177  and  _178
REMARK   75  A    between atoms: _181  and  _183
REMARK   76  A    between atoms: _183  and  _184
REMARK   77  A    between atoms: _187  and  _189
REMARK   78  A    between atoms: _189  and  _190
REMARK   79  A    between atoms: _189  and  _192
REMARK   80  A    between atoms: _195  and  _197
REMARK   81  A    between atoms: _197  and  _198
REMARK   82  A    between atoms: _197  and  _200
REMARK   83  A    between atoms: _200  and  _201
REMARK   84  A    between atoms: _205  and  ZN_355
REMARK   85  A    between atoms: _206  and  _208
REMARK   86  A    between atoms: _208  and  _209
REMARK   87  A    between atoms: _208  and  _211
REMARK   88  A    between atoms: _211  and  _212
REMARK   89  A    between atoms: _212  and  _213
REMARK   90  A    between atoms: _216  and  _218
REMARK   91  A    between atoms: _218  and  _219
REMARK   92  A    between atoms: _218  and  _221
REMARK   93  A    between atoms: _221  and  _222
REMARK   94  A    between atoms: _225  and  _227
REMARK   95  A    between atoms: _227  and  _228
REMARK   96  A    between atoms: _227  and  _230
REMARK   97  A    between atoms: _230  and  _231
REMARK   98  A    between atoms: _235  and  ZN_355
REMARK   99  A    between atoms: _236  and  _238
REMARK  100  A    between atoms: _238  and  _239
REMARK  101  A    between atoms: _238  and  _241
REMARK  102  A    between atoms: _241  and  _242
REMARK  103  A    between atoms: _244  and  _246
REMARK  104  A    between atoms: _246  and  _247
REMARK  105  A    between atoms: _246  and  _249
REMARK  106  A    between atoms: _249  and  _250
REMARK  107  A    between atoms: _253  and  _255
REMARK  108  A    between atoms: _255  and  _256
REMARK  109  A    between atoms: _258  and  _260
REMARK  110  A    between atoms: _260  and  _261
REMARK  111  A    between atoms: _260  and  _263
REMARK  112  A    between atoms: _263  and  _264
REMARK  113  A    between atoms: _268  and  ZN_355
REMARK  114  A    between atoms: _269  and  _271
REMARK  115  A    between atoms: _271  and  _272
REMARK  116  A    between atoms: _271  and  _274
REMARK  117  A    between atoms: _274  and  _275
REMARK  118  A    between atoms: _277  and  _279
REMARK  119  A    between atoms: _279  and  _280
REMARK  120  A    between atoms: _283  and  _285
REMARK  121  A    between atoms: _285  and  _286
REMARK  122  A    between atoms: _285  and  _288
REMARK  123  A    between atoms: _291  and  _293
REMARK  124  A    between atoms: _293  and  _294
REMARK  125  A    between atoms: _293  and  _296
REMARK  126  A    between atoms: _296  and  _297
REMARK  127  A    between atoms: _297  and  _298
REMARK  128  A    between atoms: _300  and  _302
REMARK  129  A    between atoms: _302  and  _303
REMARK  130  A    between atoms: _302  and  _305
REMARK  131  A    between atoms: _305  and  _306
REMARK  132  A    between atoms: _313  and  _314
REMARK  133  A    between atoms: _319  and  _321
REMARK  134  A    between atoms: _321  and  _322
REMARK  135  A    between atoms: _321  and  _324
REMARK  136  A    between atoms: _324  and  _325
REMARK  137  A    between atoms: _328  and  _330
REMARK  138  A    between atoms: _330  and  _331
REMARK  139  A    between atoms: _330  and  _333
REMARK  140  A    between atoms: _333  and  _334
REMARK  141  A    between atoms: _339  and  _340
REMARK  142  A    between atoms: _342  and  _344
REMARK  143  A    between atoms: _344  and  _345
REMARK  144  A    between atoms: _344  and  _347
REMARK  145  A    between atoms: _347  and  _348
REMARK  146  A    between atoms: _348  and  _349
REMARK  147  A    between atoms: _349  and  _350
REMARK  148  A    between atoms: _350  and  _351
REMARK                            x       y       z     vdW  Elec       q    Type
REMARK                         _______ _______ _______ _____ _____    ______ ____
ROOT
ATOM      1  CG  TRP A   1       3.857  -8.577 -15.897  0.00  0.00    -0.002 A 
ATOM      2  CD2 TRP A   1       2.995  -8.179 -14.827  0.00  0.00    +0.013 A 
ATOM      3  CE2 TRP A   1       3.805  -7.585 -13.835  0.00  0.00    +0.056 A 
ATOM      4  CZ2 TRP A   1       3.276  -7.071 -12.643  0.00  0.00    +0.017 A 
ATOM      5  CH2 TRP A   1       1.918  -7.150 -12.471  0.00  0.00    +0.001 A 
ATOM      6  CZ3 TRP A   1       1.085  -7.721 -13.451  0.00  0.00    +0.000 A 
ATOM      7  NE1 TRP A   1       5.104  -7.641 -14.277  0.00  0.00    -0.352 N 
ATOM      8  HE1 TRP A   1       5.934  -7.281 -13.764  0.00  0.00    +0.166 HD
ATOM      9  CE3 TRP A   1       1.613  -8.243 -14.623  0.00  0.00    +0.001 A 
ATOM     10  CD1 TRP A   1       5.127  -8.252 -15.510  0.00  0.00    +0.068 A 
ENDROOT
BRANCH   1  11
ATOM     11  CB  TRP A   1       3.450  -9.312 -17.132  0.00  0.00    +0.053 C 
BRANCH  11  12
ATOM     12  CA  TRP A   1       3.145 -10.780 -16.791  0.00  0.00    +0.137 C 
BRANCH  12  13
ATOM     13  N   TRP A   1       4.330 -11.401 -16.208  0.00  0.00    -0.239 NA
ATOM     14  H   TRP A   1       5.259 -10.981 -16.413  0.00  0.00    +0.142 HD
ENDBRANCH  12  13
BRANCH  12  15
ATOM     15  C   TRP A   1       2.679 -11.540 -18.020  0.00  0.00    +0.224 C 
ATOM     16  O   TRP A   1       3.498 -11.954 -18.836  0.00  0.00    -0.287 OA
ENDBRANCH  12  15
ENDBRANCH  11  12
ENDBRANCH   1  11
TORSDOF 4
REMARK  Name = ../refined-set-2016/3f1a/3f1a_pocket.pdb
REMARK  148 active torsions:
REMARK  status: ('A' for Active; 'I' for Inactive)
REMARK    1  A    between atoms: _1  and  _3
REMARK    2  A    between atoms: _3  and  _4
REMARK    3  A    between atoms: _3  and  _6
REMARK    4  A    between atoms: _6  and  _7
REMARK    5  A    between atoms: _13  and  _15
REMARK    6  A    between atoms: _15  and  _16
REMARK    7  A    between atoms: _15  and  _18
REMARK    8  A    between atoms: _18  and  _19
REMARK    9  A    between atoms: _22  and  _24
REMARK   10  A    between atoms: _24  and  _25
REMARK   11  A    between atoms: _27  and  _29
REMARK   12  A    between atoms: _29  and  _30
REMARK   13  A    between atoms: _32  and  _34
REMARK   14  A    between atoms: _34  and  _35
REMARK   15  A    between atoms: _34  and  _37
REMARK   16  A    between atoms: _35  and  _36
REMARK   17  A    between atoms: _35  and  _41
REMARK   18  A    between atoms: _36  and  CA_356
REMARK   19  A    between atoms: _37  and  _38
REMARK   20  A    between atoms: _41  and  _43
REMARK   21  A    between atoms: _43  and  _44
REMARK   22  A    between atoms: _43  and  _46
REMARK   23  A    between atoms: _46  and  _47
REMARK   24  A    between atoms: _50  and  _52
REMARK   25  A    between atoms: _52  and  _53
REMARK   26  A    between atoms: _56  and  _58
REMARK   27  A    between atoms: _58  and  _59
REMARK   28  A    between atoms: _58  and  _61
REMARK   29  A    between atoms: _61  and  _62
REMARK   30  A    between atoms: _67  and  _69
REMARK   31  A    between atoms: _69  and  _70
REMARK   32  A    between atoms: _73  and  _75
REMARK   33  A    between atoms: _75  and  _76
REMARK   34  A    between atoms: _75  and  _78
REMARK   35  A    between atoms: _78  and  _79
REMARK   36  A    between atoms: _85  and  _87
REMARK   37  A    between atoms: _87  and  _88
REMARK   38  A    between atoms: _87  and  _90
REMARK   39  A    between atoms: _90  and  _91
REMARK   40  A    between atoms: _96  and  _98
REMARK   41  A    between atoms: _98  and  _99
REMARK   42  A    between atoms: _98  and  _101
REMARK   43  A    between atoms: _101  and  _102
REMARK   44  A    between atoms: _108  and  _110
REMARK   45  A    between atoms: _110  and  _111
REMARK   46  A    between atoms: _110  and  _113
REMARK   47  A    between atoms: _113  and  _114
REMARK   48  A    between atoms: _117  and  _119
REMARK   49  A    between atoms: _119  and  _120
REMARK   50  A    between atoms: _119  and  _122
REMARK   51  A    between atoms: _122  and  _123
REMARK   52  A    between atoms: _123  and  _124
REMARK   53  A    between atoms: _124  and  _126
REMARK   54  A    between atoms: _126  and  CA_356
REMARK   55  A    between atoms: _127  and  _129
REMARK   56  A    between atoms: _129  and  _130
REMARK   57  A    between atoms: _129  and  _132
REMARK   58  A    between atoms: _132  and  _133
REMARK   59  A    between atoms: _143  and  _145
REMARK   60  A    between atoms: _145  and  _146
REMARK   61  A    between atoms: _145  and  _148
REMARK   62  A    between atoms: _148  and  _149
REMARK   63  A    between atoms: _152  and  _154
REMARK   64  A    between atoms: _154  and  _155
REMARK   65  A    between atoms: _154  and  _157
REMARK   66  A    between atoms: _157  and  _158
REMARK   67  A    between atoms: _163  and  _165
REMARK   68  A    between atoms: _165  and  _166
REMARK   69  A    between atoms: _165  and  _168
REMARK   70  A    between atoms: _168  and  _169
REMARK   71  A    between atoms: _172  and  _174
REMARK   72  A    between atoms: _174  and  _175
REMARK   73  A    between atoms: _174  and  _177
REMARK   74  A    between atoms: _177  and  _178
REMARK   75  A    between atoms: _181  and  _183
REMARK   76  A    between atoms: _183  and  _184
REMARK   77  A    between atoms: _187  and  _189
REMARK   78  A    between atoms: _189  and  _190
REMARK   79  A    between atoms: _189  and  _192
REMARK   80  A    between atoms: _195  and  _197
REMARK   81  A    between atoms: _197  and  _198
REMARK   82  A    between atoms: _197  and  _200
REMARK   83  A    between atoms: _200  and  _201
REMARK   84  A    between atoms: _205  and  ZN_355
REMARK   85  A    between atoms: _206  and  _208
REMARK   86  A    between atoms: _208  and  _209
REMARK   87  A    between atoms: _208  and  _211
REMARK   88  A    between atoms: _211  and  _212
REMARK   89  A    between atoms: _212  and  _213
REMARK   90  A    between atoms: _216  and  _218
REMARK   91  A    between atoms: _218  and  _219
REMARK   92  A    between atoms: _218  and  _221
REMARK   93  A    between atoms: _221  and  _222
REMARK   94  A    between atoms: _225  and  _227
REMARK   95  A    between atoms: _227  and  _228
REMARK   96  A    between atoms: _227  and  _230
REMARK   97  A    between atoms: _230  and  _231
REMARK   98  A    between atoms: _235  and  ZN_355
REMARK   99  A    between atoms: _236  and  _238
REMARK  100  A    between atoms: _238  and  _239
REMARK  101  A    between atoms: _238  and  _241
REMARK  102  A    between atoms: _241  and  _242
REMARK  103  A    between atoms: _244  and  _246
REMARK  104  A    between atoms: _246  and  _247
REMARK  105  A    between atoms: _246  and  _249
REMARK  106  A    between atoms: _249  and  _250
REMARK  107  A    between atoms: _253  and  _255
REMARK  108  A    between atoms: _255  and  _256
REMARK  109  A    between atoms: _258  and  _260
REMARK  110  A    between atoms: _260  and  _261
REMARK  111  A    between atoms: _260  and  _263
REMARK  112  A    between atoms: _263  and  _264
REMARK  113  A    between atoms: _268  and  ZN_355
REMARK  114  A    between atoms: _269  and  _271
REMARK  115  A    between atoms: _271  and  _272
REMARK  116  A    between atoms: _271  and  _274
REMARK  117  A    between atoms: _274  and  _275
REMARK  118  A    between atoms: _277  and  _279
REMARK  119  A    between atoms: _279  and  _280
REMARK  120  A    between atoms: _283  and  _285
REMARK  121  A    between atoms: _285  and  _286
REMARK  122  A    between atoms: _285  and  _288
REMARK  123  A    between atoms: _291  and  _293
REMARK  124  A    between atoms: _293  and  _294
REMARK  125  A    between atoms: _293  and  _296
REMARK  126  A    between atoms: _296  and  _297
REMARK  127  A    between atoms: _297  and  _298
REMARK  128  A    between atoms: _300  and  _302
REMARK  129  A    between atoms: _302  and  _303
REMARK  130  A    between atoms: _302  and  _305
REMARK  131  A    between atoms: _305  and  _306
REMARK  132  A    between atoms: _313  and  _314
REMARK  133  A    between atoms: _319  and  _321
REMARK  134  A    between atoms: _321  and  _322
REMARK  135  A    between atoms: _321  and  _324
REMARK  136  A    between atoms: _324  and  _325
REMARK  137  A    between atoms: _328  and  _330
REMARK  138  A    between atoms: _330  and  _331
REMARK  139  A    between atoms: _330  and  _333
REMARK  140  A    between atoms: _333  and  _334
REMARK  141  A    between atoms: _339  and  _340
REMARK  142  A    between atoms: _342  and  _344
REMARK  143  A    between atoms: _344  and  _345
REMARK  144  A    between atoms: _344  and  _347
REMARK  145  A    between atoms: _347  and  _348
REMARK  146  A    between atoms: _348  and  _349
REMARK  147  A    between atoms: _349  and  _350
REMARK  148  A    between atoms: _350  and  _351
REMARK                            x       y       z     vdW  Elec       q    Type
REMARK                         _______ _______ _______ _____ _____    ______ ____
ROOT
ATOM      1  C   THR A   1      -0.607 -11.756 -14.622  0.00  0.00    +0.241 C 
ATOM      2  N   ASN A   2      -1.921 -11.606 -14.723  0.00  0.00    -0.298 N 
ATOM      3  H   ASN A   2      -2.535 -11.936 -13.951  0.00  0.00    +0.150 HD
ATOM      4  O   THR A   1       0.178 -11.333 -15.472  0.00  0.00    -0.274 OA
ENDROOT
BRANCH   1   5
ATOM      5  CA  THR A   1      -0.101 -12.482 -13.392  0.00  0.00    +0.172 C 
BRANCH   5   6
ATOM      6  N   THR A   1       0.811 -13.526 -13.849  0.00  0.00    -0.236 NA
ATOM      7  H   THR A   1       1.677 -13.251 -14.355  0.00  0.00    +0.142 HD
ENDBRANCH   5   6
BRANCH   5   8
ATOM      8  CB  THR A   1       0.605 -11.479 -12.459  0.00  0.00    +0.135 C 
ATOM      9  CG2 THR A   1      -0.395 -10.485 -11.854  0.00  0.00    +0.034 C 
BRANCH   8  10
ATOM     10  OG1 THR A   1       1.239 -12.189 -11.389  0.00  0.00    -0.383 OA
ATOM     11  HG1 THR A   1       0.556 -12.692 -10.878  0.00  0.00    +0.210 HD
ENDBRANCH   8  10
ENDBRANCH   5   8
ENDBRANCH   1   5
BRANCH   2  12
ATOM     12  CA  ASN A   2      -2.515 -10.989 -15.893  0.00  0.00    +0.146 C 
BRANCH  12  13
ATOM     13  C   ASN A   2      -2.331  -9.477 -15.878  0.00  0.00    +0.227 C 
ATOM     14  O   ASN A   2      -2.787  -8.795 -14.963  0.00  0.00    -0.286 OA
ENDBRANCH  12  13
BRANCH  12  15
ATOM     15  CB  ASN A   2      -3.991 -11.358 -15.989  0.00  0.00    +0.112 C 
BRANCH  15  16
ATOM     16  CG  ASN A   2      -4.610 -10.892 -17.280  0.00  0.00    +0.222 C 
ATOM     17  OD1 ASN A   2      -5.110  -9.770 -17.373  0.00  0.00    -0.275 OA
ATOM     18  ND2 ASN A   2      -4.556 -11.741 -18.302  0.00  0.00    -0.329 N 
ATOM     19 HD21 ASN A   2      -4.124 -12.679 -18.177  0.00  0.00    +0.145 HD
ATOM     20 HD22 ASN A   2      -4.946 -11.467 -19.227  0.00  0.00    +0.145 HD
ENDBRANCH  15  16
ENDBRANCH  12  15
ENDBRANCH   2  12
TORSDOF 8
REMARK  Name = ../refined-set-2016/3f1a/3f1a_pocket.pdb
REMARK  148 active torsions:
REMARK  status: ('A' for Active; 'I' for Inactive)
REMARK    1  A    between atoms: _1  and  _3
REMARK    2  A    between atoms: _3  and  _4
REMARK    3  A    between atoms: _3  and  _6
REMARK    4  A    between atoms: _6  and  _7
REMARK    5  A    between atoms: _13  and  _15
REMARK    6  A    between atoms: _15  and  _16
REMARK    7  A    between atoms: _15  and  _18
REMARK    8  A    between atoms: _18  and  _19
REMARK    9  A    between atoms: _22  and  _24
REMARK   10  A    between atoms: _24  and  _25
REMARK   11  A    between atoms: _27  and  _29
REMARK   12  A    between atoms: _29  and  _30
REMARK   13  A    between atoms: _32  and  _34
REMARK   14  A    between atoms: _34  and  _35
REMARK   15  A    between atoms: _34  and  _37
REMARK   16  A    between atoms: _35  and  _36
REMARK   17  A    between atoms: _35  and  _41
REMARK   18  A    between atoms: _36  and  CA_356
REMARK   19  A    between atoms: _37  and  _38
REMARK   20  A    between atoms: _41  and  _43
REMARK   21  A    between atoms: _43  and  _44
REMARK   22  A    between atoms: _43  and  _46
REMARK   23  A    between atoms: _46  and  _47
REMARK   24  A    between atoms: _50  and  _52
REMARK   25  A    between atoms: _52  and  _53
REMARK   26  A    between atoms: _56  and  _58
REMARK   27  A    between atoms: _58  and  _59
REMARK   28  A    between atoms: _58  and  _61
REMARK   29  A    between atoms: _61  and  _62
REMARK   30  A    between atoms: _67  and  _69
REMARK   31  A    between atoms: _69  and  _70
REMARK   32  A    between atoms: _73  and  _75
REMARK   33  A    between atoms: _75  and  _76
REMARK   34  A    between atoms: _75  and  _78
REMARK   35  A    between atoms: _78  and  _79
REMARK   36  A    between atoms: _85  and  _87
REMARK   37  A    between atoms: _87  and  _88
REMARK   38  A    between atoms: _87  and  _90
REMARK   39  A    between atoms: _90  and  _91
REMARK   40  A    between atoms: _96  and  _98
REMARK   41  A    between atoms: _98  and  _99
REMARK   42  A    between atoms: _98  and  _101
REMARK   43  A    between atoms: _101  and  _102
REMARK   44  A    between atoms: _108  and  _110
REMARK   45  A    between atoms: _110  and  _111
REMARK   46  A    between atoms: _110  and  _113
REMARK   47  A    between atoms: _113  and  _114
REMARK   48  A    between atoms: _117  and  _119
REMARK   49  A    between atoms: _119  and  _120
REMARK   50  A    between atoms: _119  and  _122
REMARK   51  A    between atoms: _122  and  _123
REMARK   52  A    between atoms: _123  and  _124
REMARK   53  A    between atoms: _124  and  _126
REMARK   54  A    between atoms: _126  and  CA_356
REMARK   55  A    between atoms: _127  and  _129
REMARK   56  A    between atoms: _129  and  _130
REMARK   57  A    between atoms: _129  and  _132
REMARK   58  A    between atoms: _132  and  _133
REMARK   59  A    between atoms: _143  and  _145
REMARK   60  A    between atoms: _145  and  _146
REMARK   61  A    between atoms: _145  and  _148
REMARK   62  A    between atoms: _148  and  _149
REMARK   63  A    between atoms: _152  and  _154
REMARK   64  A    between atoms: _154  and  _155
REMARK   65  A    between atoms: _154  and  _157
REMARK   66  A    between atoms: _157  and  _158
REMARK   67  A    between atoms: _163  and  _165
REMARK   68  A    between atoms: _165  and  _166
REMARK   69  A    between atoms: _165  and  _168
REMARK   70  A    between atoms: _168  and  _169
REMARK   71  A    between atoms: _172  and  _174
REMARK   72  A    between atoms: _174  and  _175
REMARK   73  A    between atoms: _174  and  _177
REMARK   74  A    between atoms: _177  and  _178
REMARK   75  A    between atoms: _181  and  _183
REMARK   76  A    between atoms: _183  and  _184
REMARK   77  A    between atoms: _187  and  _189
REMARK   78  A    between atoms: _189  and  _190
REMARK   79  A    between atoms: _189  and  _192
REMARK   80  A    between atoms: _195  and  _197
REMARK   81  A    between atoms: _197  and  _198
REMARK   82  A    between atoms: _197  and  _200
REMARK   83  A    between atoms: _200  and  _201
REMARK   84  A    between atoms: _205  and  ZN_355
REMARK   85  A    between atoms: _206  and  _208
REMARK   86  A    between atoms: _208  and  _209
REMARK   87  A    between atoms: _208  and  _211
REMARK   88  A    between atoms: _211  and  _212
REMARK   89  A    between atoms: _212  and  _213
REMARK   90  A    between atoms: _216  and  _218
REMARK   91  A    between atoms: _218  and  _219
REMARK   92  A    between atoms: _218  and  _221
REMARK   93  A    between atoms: _221  and  _222
REMARK   94  A    between atoms: _225  and  _227
REMARK   95  A    between atoms: _227  and  _228
REMARK   96  A    between atoms: _227  and  _230
REMARK   97  A    between atoms: _230  and  _231
REMARK   98  A    between atoms: _235  and  ZN_355
REMARK   99  A    between atoms: _236  and  _238
REMARK  100  A    between atoms: _238  and  _239
REMARK  101  A    between atoms: _238  and  _241
REMARK  102  A    between atoms: _241  and  _242
REMARK  103  A    between atoms: _244  and  _246
REMARK  104  A    between atoms: _246  and  _247
REMARK  105  A    between atoms: _246  and  _249
REMARK  106  A    between atoms: _249  and  _250
REMARK  107  A    between atoms: _253  and  _255
REMARK  108  A    between atoms: _255  and  _256
REMARK  109  A    between atoms: _258  and  _260
REMARK  110  A    between atoms: _260  and  _261
REMARK  111  A    between atoms: _260  and  _263
REMARK  112  A    between atoms: _263  and  _264
REMARK  113  A    between atoms: _268  and  ZN_355
REMARK  114  A    between atoms: _269  and  _271
REMARK  115  A    between atoms: _271  and  _272
REMARK  116  A    between atoms: _271  and  _274
REMARK  117  A    between atoms: _274  and  _275
REMARK  118  A    between atoms: _277  and  _279
REMARK  119  A    between atoms: _279  and  _280
REMARK  120  A    between atoms: _283  and  _285
REMARK  121  A    between atoms: _285  and  _286
REMARK  122  A    between atoms: _285  and  _288
REMARK  123  A    between atoms: _291  and  _293
REMARK  124  A    between atoms: _293  and  _294
REMARK  125  A    between atoms: _293  and  _296
REMARK  126  A    between atoms: _296  and  _297
REMARK  127  A    between atoms: _297  and  _298
REMARK  128  A    between atoms: _300  and  _302
REMARK  129  A    between atoms: _302  and  _303
REMARK  130  A    between atoms: _302  and  _305
REMARK  131  A    between atoms: _305  and  _306
REMARK  132  A    between atoms: _313  and  _314
REMARK  133  A    between atoms: _319  and  _321
REMARK  134  A    between atoms: _321  and  _322
REMARK  135  A    between atoms: _321  and  _324
REMARK  136  A    between atoms: _324  and  _325
REMARK  137  A    between atoms: _328  and  _330
REMARK  138  A    between atoms: _330  and  _331
REMARK  139  A    between atoms: _330  and  _333
REMARK  140  A    between atoms: _333  and  _334
REMARK  141  A    between atoms: _339  and  _340
REMARK  142  A    between atoms: _342  and  _344
REMARK  143  A    between atoms: _344  and  _345
REMARK  144  A    between atoms: _344  and  _347
REMARK  145  A    between atoms: _347  and  _348
REMARK  146  A    between atoms: _348  and  _349
REMARK  147  A    between atoms: _349  and  _350
REMARK  148  A    between atoms: _350  and  _351
REMARK                            x       y       z     vdW  Elec       q    Type
REMARK                         _______ _______ _______ _____ _____    ______ ____
ROOT
ATOM      1  C   UNK A   5      -6.341  -2.979  -8.434  0.00  0.00    +0.000 A 
ATOM      2  N   UNK A   5      -7.189  -3.468  -7.462  0.00  0.00    +0.000 NA
ATOM      3  C   UNK A   5      -6.734  -3.127  -6.269  0.00  0.00    +0.000 A 
ATOM      4  N   UNK A   5      -5.614  -2.445  -6.427  0.00  0.00    +0.000 N 
ATOM      5  C   UNK A   5      -5.344  -2.345  -7.772  0.00  0.00    +0.000 A 
ENDROOT
BRANCH   4   6
ATOM      6 ZN   UNK A   5      -4.388  -1.531  -5.025  0.00  0.00    +0.000 Zn
BRANCH   6   7
ATOM      7  N   UNK A   5      -4.835   0.511  -5.588  0.00  0.00    +0.000 N 
ATOM      8  C   UNK A   5      -5.736   1.319  -5.056  0.00  0.00    +0.000 A 
ATOM      9  N   UNK A   5      -5.753   2.444  -5.751  0.00  0.00    +0.000 NA
ATOM     10  C   UNK A   5      -4.828   2.361  -6.772  0.00  0.00    +0.000 A 
ATOM     11  C   UNK A   5      -4.248   1.144  -6.655  0.00  0.00    +0.000 A 
BRANCH  10  12
ATOM     12  C   UNK A   5      -4.535   3.480  -7.720  0.00  0.00    +0.000 C 
BRANCH  12  13
ATOM     13  C   UNK A   5      -5.763   4.207  -8.270  0.00  0.00    +0.000 C 
BRANCH  13  14
ATOM     14  C   UNK A   5      -5.262   5.482  -8.953  0.00  0.00    +0.000 C 
ATOM     15  O   UNK A   5      -5.331   6.559  -8.371  0.00  0.00    +0.000 OA
ATOM     16  N   SER A   2      -4.751   5.361 -10.177  0.00  0.00    +0.000 N 
ATOM     17  H   SER A   2      -4.693   4.417 -10.609  0.00  0.00    +0.000 HD
BRANCH  16  18
ATOM     18  CA  SER A   2      -4.268   6.521 -10.933  0.00  0.00    +0.000 C 
BRANCH  18  19
ATOM     19  CB  SER A   2      -5.340   7.590 -11.139  0.00  0.00    +0.000 C 
ATOM     20  OG  SER A   2      -5.015   8.766 -11.339  0.00  0.00    +0.000 OA
ENDBRANCH  18  19
BRANCH  18  21
ATOM     21  C   SER A   2      -3.760   6.104 -12.312  0.00  0.00    +0.000 C 
BRANCH  21  22
ATOM     22  O   SER A   2      -2.679   5.195 -12.220  0.00  0.00    +0.000 OA
ATOM     23  H   SER A   2      -1.932   5.620 -11.728  0.00  0.00    +0.000 HD
ENDBRANCH  21  22
ENDBRANCH  18  21
ENDBRANCH  16  18
ENDBRANCH  13  14
BRANCH  13  24
ATOM     24  N   UNK A   5      -6.542   3.368  -9.192  0.00  0.00    +0.000 NA
ATOM     25  H   UNK A   1      -6.198   2.415  -9.425  0.00  0.00    +0.000 HD
ENDBRANCH  13  24
ENDBRANCH  12  13
ENDBRANCH  10  12
ENDBRANCH   6   7
BRANCH   6  26
ATOM     26  N   UNK A   5      -5.554  -1.472  -3.302  0.00  0.00    +0.000 N 
ATOM     27  C   UNK A   5      -5.076  -1.468  -2.070  0.00  0.00    +0.000 A 
ATOM     28  N   UNK A   5      -6.080  -1.272  -1.232  0.00  0.00    +0.000 NA
ATOM     29  C   UNK A   5      -7.253  -1.156  -1.944  0.00  0.00    +0.000 A 
ATOM     30  C   UNK A   5      -6.912  -1.275  -3.249  0.00  0.00    +0.000 A 
BRANCH  29  31
ATOM     31  C   UNK A   5      -8.581  -0.910  -1.295  0.00  0.00    +0.000 C 
BRANCH  31  32
ATOM     32  C   UNK A   5      -9.521  -0.078  -2.159  0.00  0.00    +0.000 C 
BRANCH  32  33
ATOM     33  N   UNK A   5      -9.080   1.309  -2.201  0.00  0.00    +0.000 N 
ATOM     34  H   UNK A   5      -8.489   1.683  -1.431  0.00  0.00    +0.000 HD
ATOM     35  C   SER A   2      -9.421   2.102  -3.207  0.00  0.00    +0.000 C 
ATOM     36  O   SER A   2     -10.102   1.714  -4.171  0.00  0.00    +0.000 OA
BRANCH  35  37
ATOM     37  CA  SER A   2      -8.935   3.533  -3.115  0.00  0.00    +0.000 C 
BRANCH  37  38
ATOM     38  N   SER A   2      -9.594   4.340  -4.129  0.00  0.00    +0.000 N 
ATOM     39  H   SER A   2     -10.563   4.676  -3.955  0.00  0.00    +0.000 HD
ATOM     40  C   UNK A   1      -8.997   4.662  -5.272  0.00  0.00    +0.000 C 
ATOM     41  O   UNK A   1      -7.792   4.477  -5.497  0.00  0.00    +0.000 OA
BRANCH  40  42
ATOM     42  C   UNK A   1      -9.903   5.290  -6.317  0.00  0.00    +0.000 C 
BRANCH  42  43
ATOM     43  N   UNK A   1      -9.212   6.299  -7.114  0.00  0.00    +0.000 NA
ATOM     44  H   UNK A   1      -8.891   6.063  -8.075  0.00  0.00    +0.000 HD
ENDBRANCH  42  43
BRANCH  42  45
ATOM     45  C   UNK A   1     -10.467   4.183  -7.198  0.00  0.00    +0.000 C 
BRANCH  45  46
ATOM     46  C   UNK A   1     -11.608   4.532  -8.142  0.00  0.00    +0.000 C 
ATOM     47  C   UNK A   1     -12.847   5.012  -7.385  0.00  0.00    +0.000 C 
ATOM     48  C   UNK A   1     -11.945   3.316  -8.978  0.00  0.00    +0.000 C 
ENDBRANCH  45  46
ENDBRANCH  42  45
ENDBRANCH  40  42
ENDBRANCH  37  38
ENDBRANCH  35  37
ENDBRANCH  32  33
BRANCH  32  49
ATOM     49  C   UNK A   5     -10.963  -0.255  -1.711  0.00  0.00    +0.000 C 
ATOM     50  O   UNK A   5     -11.507   0.553  -0.968  0.00  0.00    +0.000 OA
ATOM     51  N   SER A   4     -11.568  -1.330  -2.192  0.00  0.00    +0.000 N 
ATOM     52  H   SER A   4     -11.065  -1.917  -2.888  0.00  0.00    +0.000 HD
BRANCH  51  53
ATOM     53  CA  SER A   4     -12.902  -1.721  -1.788  0.00  0.00    +0.000 C 
BRANCH  53  54
ATOM     54  CB  SER A   4     -12.813  -2.930  -0.868  0.00  0.00    +0.000 C 
ATOM     55  OG  SER A   4     -11.921  -3.762  -1.001  0.00  0.00    +0.000 OA
ENDBRANCH  53  54
BRANCH  53  56
ATOM     56  C   SER A   4     -13.732  -2.062  -3.021  0.00  0.00    +0.000 C 
BRANCH  56  57
ATOM     57  O   SER A   4     -14.981  -2.622  -2.655  0.00  0.00    +0.000 OA
ATOM     58  H   SER A   4     -15.499  -2.834  -3.472  0.00  0.00    +0.000 HD
ENDBRANCH  56  57
ENDBRANCH  53  56
ENDBRANCH  51  53
ENDBRANCH  32  49
ENDBRANCH  31  32
ENDBRANCH  29  31
ENDBRANCH   6  26
ENDBRANCH   4   6
BRANCH   1  59
ATOM     59  C   UNK A   5      -6.555  -3.217  -9.900  0.00  0.00    +0.000 C 
BRANCH  59  60
ATOM     60  C   UNK A   5      -6.967  -1.975 -10.697  0.00  0.00    +0.000 C 
BRANCH  60  61
ATOM     61  C   UNK A   5      -6.010  -0.794 -10.482  0.00  0.00    +0.000 C 
ATOM     62  O   UNK A   5      -6.377   0.195  -9.841  0.00  0.00    +0.000 OA
ATOM     63  N   GLU A   6      -4.806  -0.866 -11.048  0.00  0.00    +0.000 N 
ATOM     64  H   GLU A   6      -4.551  -1.702 -11.612  0.00  0.00    +0.000 HD
BRANCH  63  65
ATOM     65  CA  GLU A   6      -3.836   0.223 -10.883  0.00  0.00    +0.000 C 
BRANCH  65  66
ATOM     66  C   GLU A   6      -4.326   1.548 -11.447  0.00  0.00    +0.000 C 
ATOM     67  O   GLU A   6      -4.170   2.584 -10.810  0.00  0.00    +0.000 OA
ATOM     68  N   ILE A   7      -4.922   1.517 -12.633  0.00  0.00    +0.000 N 
ATOM     69  H   ILE A   7      -5.011   0.615 -13.144  0.00  0.00    +0.000 HD
BRANCH  68  70
ATOM     70  CA  ILE A   7      -5.455   2.746 -13.226  0.00  0.00    +0.000 C 
BRANCH  70  71
ATOM     71  C   ILE A   7      -6.602   3.312 -12.366  0.00  0.00    +0.000 C 
ATOM     72  O   ILE A   7      -6.749   4.520 -12.242  0.00  0.00    +0.000 OA
ENDBRANCH  70  71
BRANCH  70  73
ATOM     73  CB  ILE A   7      -5.851   2.527 -14.704  0.00  0.00    +0.000 C 
ATOM     74  CG2 ILE A   7      -6.620   3.733 -15.257  0.00  0.00    +0.000 C 
BRANCH  73  75
ATOM     75  CG1 ILE A   7      -4.586   2.252 -15.535  0.00  0.00    +0.000 C 
ATOM     76  CD1 ILE A   7      -4.836   1.631 -16.894  0.00  0.00    +0.000 C 
ENDBRANCH  73  75
ENDBRANCH  70  73
ENDBRANCH  68  70
ENDBRANCH  65  66
BRANCH  65  77
ATOM     77  CB  GLU A   6      -2.472  -0.138 -11.478  0.00  0.00    +0.000 C 
BRANCH  77  78
ATOM     78  CG  GLU A   6      -1.780  -1.301 -10.775  0.00  0.00    +0.000 C 
BRANCH  78  79
ATOM     79  CD  GLU A   6      -1.779  -1.155  -9.272  0.00  0.00    +0.000 C 
ATOM     80  OE2 GLU A   6      -2.173  -2.119  -8.591  0.00  0.00    +0.000 OA
ATOM     81  OE1 GLU A   6      -1.389  -0.085  -8.776  0.00  0.00    +0.000 OA
ENDBRANCH  78  79
ENDBRANCH  77  78
ENDBRANCH  65  77
ENDBRANCH  63  65
ENDBRANCH  60  61
BRANCH  60  83
ATOM     82  C   SER A   4      -7.495  -1.515 -13.037  0.00  0.00    +0.000 C 
ATOM     83  N   UNK A   5      -7.050  -2.344 -12.099  0.00  0.00    +0.000 N 
ATOM     84  H   UNK A   5      -6.748  -3.298 -12.381  0.00  0.00    +0.000 HD
ATOM     85  O   SER A   4      -7.901  -0.376 -12.794  0.00  0.00    +0.000 OA
BRANCH  82  86
ATOM     86  CA  SER A   4      -7.469  -2.056 -14.475  0.00  0.00    +0.000 C 
BRANCH  86  89
ATOM     87  C   UNK A   3      -5.062  -1.909 -14.633  0.00  0.00    +0.000 C 
ATOM     88  O   UNK A   3      -5.112  -0.722 -14.349  0.00  0.00    +0.000 OA
ATOM     89  N   SER A   4      -6.160  -2.653 -14.756  0.00  0.00    +0.000 N 
ATOM     90  H   SER A   4      -6.089  -3.648 -15.049  0.00  0.00    +0.000 HD
BRANCH  87  91
ATOM     91  C   UNK A   3      -3.704  -2.585 -14.836  0.00  0.00    +0.000 C 
ATOM     92  C   UNK A   3      -3.259  -2.487 -16.285  0.00  0.00    +0.000 C 
BRANCH  91  95
ATOM     93  C   SER A   2      -3.800  -4.263 -13.079  0.00  0.00    +0.000 C 
ATOM     94  O   SER A   2      -3.978  -3.402 -12.201  0.00  0.00    +0.000 OA
ATOM     95  N   UNK A   3      -3.685  -3.966 -14.372  0.00  0.00    +0.000 N 
ATOM     96  H   UNK A   3      -3.580  -4.735 -15.064  0.00  0.00    +0.000 HD
BRANCH  93  97
ATOM     97  CA  SER A   2      -3.748  -5.755 -12.723  0.00  0.00    +0.000 C 
BRANCH  97 100
ATOM     98  C   UNK A   1      -5.855  -6.365 -13.786  0.00  0.00    +0.000 C 
ATOM     99  O   UNK A   1      -6.502  -5.589 -13.076  0.00  0.00    +0.000 OA
ATOM    100  N   SER A   2      -4.540  -6.539 -13.668  0.00  0.00    +0.000 N 
ATOM    101  H   SER A   2      -4.066  -7.249 -14.262  0.00  0.00    +0.000 HD
BRANCH  98 102
ATOM    102  C   UNK A   1      -6.547  -7.191 -14.862  0.00  0.00    +0.000 C 
BRANCH 102 103
ATOM    103  N   UNK A   1      -5.752  -7.234 -16.090  0.00  0.00    +0.000 NA
ATOM    104  H   UNK A   1      -5.365  -8.141 -16.420  0.00  0.00    +0.000 HD
ENDBRANCH 102 103
BRANCH 102 105
ATOM    105  C   UNK A   1      -6.814  -8.598 -14.331  0.00  0.00    +0.000 C 
BRANCH 105 106
ATOM    106  C   UNK A   1      -7.778  -9.504 -15.085  0.00  0.00    +0.000 C 
ATOM    107  C   UNK A   1      -7.771 -10.886 -14.442  0.00  0.00    +0.000 C 
ATOM    108  C   UNK A   1      -9.194  -8.945 -15.127  0.00  0.00    +0.000 C 
ENDBRANCH 105 106
ENDBRANCH 102 105
ENDBRANCH  98 102
ENDBRANCH  97 100
BRANCH  97 109
ATOM    109  CB  SER A   2      -2.302  -6.284 -12.653  0.00  0.00    +0.000 C 
ATOM    110  CG2 SER A   2      -1.519  -5.583 -11.564  0.00  0.00    +0.000 C 
BRANCH 109 111
ATOM    111  OG1 SER A   2      -2.330  -7.688 -12.362  0.00  0.00    +0.000 OA
ATOM    112  HG1 SER A   2      -2.825  -8.162 -13.077  0.00  0.00    +0.000 HD
ENDBRANCH 109 111
ENDBRANCH  97 109
ENDBRANCH  93  97
ENDBRANCH  91  95
ENDBRANCH  87  91
ENDBRANCH  86  89
BRANCH  86 113
ATOM    113  CB  SER A   4      -8.641  -3.050 -14.703  0.00  0.00    +0.000 C 
ATOM    114  CG2 SER A   4      -9.953  -2.437 -14.212  0.00  0.00    +0.000 C 
ATOM    115  CG1 SER A   4      -8.766  -3.420 -16.172  0.00  0.00    +0.000 C 
ENDBRANCH  86 113
ENDBRANCH  82  86
ENDBRANCH  60  83
ENDBRANCH  59  60
ENDBRANCH   1  59
TORSDOF 51
REMARK  Name = ../refined-set-2016/3f1a/3f1a_pocket.pdb
REMARK  148 active torsions:
REMARK  status: ('A' for Active; 'I' for Inactive)
REMARK    1  A    between atoms: _1  and  _3
REMARK    2  A    between atoms: _3  and  _4
REMARK    3  A    between atoms: _3  and  _6
REMARK    4  A    between atoms: _6  and  _7
REMARK    5  A    between atoms: _13  and  _15
REMARK    6  A    between atoms: _15  and  _16
REMARK    7  A    between atoms: _15  and  _18
REMARK    8  A    between atoms: _18  and  _19
REMARK    9  A    between atoms: _22  and  _24
REMARK   10  A    between atoms: _24  and  _25
REMARK   11  A    between atoms: _27  and  _29
REMARK   12  A    between atoms: _29  and  _30
REMARK   13  A    between atoms: _32  and  _34
REMARK   14  A    between atoms: _34  and  _35
REMARK   15  A    between atoms: _34  and  _37
REMARK   16  A    between atoms: _35  and  _36
REMARK   17  A    between atoms: _35  and  _41
REMARK   18  A    between atoms: _36  and  CA_356
REMARK   19  A    between atoms: _37  and  _38
REMARK   20  A    between atoms: _41  and  _43
REMARK   21  A    between atoms: _43  and  _44
REMARK   22  A    between atoms: _43  and  _46
REMARK   23  A    between atoms: _46  and  _47
REMARK   24  A    between atoms: _50  and  _52
REMARK   25  A    between atoms: _52  and  _53
REMARK   26  A    between atoms: _56  and  _58
REMARK   27  A    between atoms: _58  and  _59
REMARK   28  A    between atoms: _58  and  _61
REMARK   29  A    between atoms: _61  and  _62
REMARK   30  A    between atoms: _67  and  _69
REMARK   31  A    between atoms: _69  and  _70
REMARK   32  A    between atoms: _73  and  _75
REMARK   33  A    between atoms: _75  and  _76
REMARK   34  A    between atoms: _75  and  _78
REMARK   35  A    between atoms: _78  and  _79
REMARK   36  A    between atoms: _85  and  _87
REMARK   37  A    between atoms: _87  and  _88
REMARK   38  A    between atoms: _87  and  _90
REMARK   39  A    between atoms: _90  and  _91
REMARK   40  A    between atoms: _96  and  _98
REMARK   41  A    between atoms: _98  and  _99
REMARK   42  A    between atoms: _98  and  _101
REMARK   43  A    between atoms: _101  and  _102
REMARK   44  A    between atoms: _108  and  _110
REMARK   45  A    between atoms: _110  and  _111
REMARK   46  A    between atoms: _110  and  _113
REMARK   47  A    between atoms: _113  and  _114
REMARK   48  A    between atoms: _117  and  _119
REMARK   49  A    between atoms: _119  and  _120
REMARK   50  A    between atoms: _119  and  _122
REMARK   51  A    between atoms: _122  and  _123
REMARK   52  A    between atoms: _123  and  _124
REMARK   53  A    between atoms: _124  and  _126
REMARK   54  A    between atoms: _126  and  CA_356
REMARK   55  A    between atoms: _127  and  _129
REMARK   56  A    between atoms: _129  and  _130
REMARK   57  A    between atoms: _129  and  _132
REMARK   58  A    between atoms: _132  and  _133
REMARK   59  A    between atoms: _143  and  _145
REMARK   60  A    between atoms: _145  and  _146
REMARK   61  A    between atoms: _145  and  _148
REMARK   62  A    between atoms: _148  and  _149
REMARK   63  A    between atoms: _152  and  _154
REMARK   64  A    between atoms: _154  and  _155
REMARK   65  A    between atoms: _154  and  _157
REMARK   66  A    between atoms: _157  and  _158
REMARK   67  A    between atoms: _163  and  _165
REMARK   68  A    between atoms: _165  and  _166
REMARK   69  A    between atoms: _165  and  _168
REMARK   70  A    between atoms: _168  and  _169
REMARK   71  A    between atoms: _172  and  _174
REMARK   72  A    between atoms: _174  and  _175
REMARK   73  A    between atoms: _174  and  _177
REMARK   74  A    between atoms: _177  and  _178
REMARK   75  A    between atoms: _181  and  _183
REMARK   76  A    between atoms: _183  and  _184
REMARK   77  A    between atoms: _187  and  _189
REMARK   78  A    between atoms: _189  and  _190
REMARK   79  A    between atoms: _189  and  _192
REMARK   80  A    between atoms: _195  and  _197
REMARK   81  A    between atoms: _197  and  _198
REMARK   82  A    between atoms: _197  and  _200
REMARK   83  A    between atoms: _200  and  _201
REMARK   84  A    between atoms: _205  and  ZN_355
REMARK   85  A    between atoms: _206  and  _208
REMARK   86  A    between atoms: _208  and  _209
REMARK   87  A    between atoms: _208  and  _211
REMARK   88  A    between atoms: _211  and  _212
REMARK   89  A    between atoms: _212  and  _213
REMARK   90  A    between atoms: _216  and  _218
REMARK   91  A    between atoms: _218  and  _219
REMARK   92  A    between atoms: _218  and  _221
REMARK   93  A    between atoms: _221  and  _222
REMARK   94  A    between atoms: _225  and  _227
REMARK   95  A    between atoms: _227  and  _228
REMARK   96  A    between atoms: _227  and  _230
REMARK   97  A    between atoms: _230  and  _231
REMARK   98  A    between atoms: _235  and  ZN_355
REMARK   99  A    between atoms: _236  and  _238
REMARK  100  A    between atoms: _238  and  _239
REMARK  101  A    between atoms: _238  and  _241
REMARK  102  A    between atoms: _241  and  _242
REMARK  103  A    between atoms: _244  and  _246
REMARK  104  A    between atoms: _246  and  _247
REMARK  105  A    between atoms: _246  and  _249
REMARK  106  A    between atoms: _249  and  _250
REMARK  107  A    between atoms: _253  and  _255
REMARK  108  A    between atoms: _255  and  _256
REMARK  109  A    between atoms: _258  and  _260
REMARK  110  A    between atoms: _260  and  _261
REMARK  111  A    between atoms: _260  and  _263
REMARK  112  A    between atoms: _263  and  _264
REMARK  113  A    between atoms: _268  and  ZN_355
REMARK  114  A    between atoms: _269  and  _271
REMARK  115  A    between atoms: _271  and  _272
REMARK  116  A    between atoms: _271  and  _274
REMARK  117  A    between atoms: _274  and  _275
REMARK  118  A    between atoms: _277  and  _279
REMARK  119  A    between atoms: _279  and  _280
REMARK  120  A    between atoms: _283  and  _285
REMARK  121  A    between atoms: _285  and  _286
REMARK  122  A    between atoms: _285  and  _288
REMARK  123  A    between atoms: _291  and  _293
REMARK  124  A    between atoms: _293  and  _294
REMARK  125  A    between atoms: _293  and  _296
REMARK  126  A    between atoms: _296  and  _297
REMARK  127  A    between atoms: _297  and  _298
REMARK  128  A    between atoms: _300  and  _302
REMARK  129  A    between atoms: _302  and  _303
REMARK  130  A    between atoms: _302  and  _305
REMARK  131  A    between atoms: _305  and  _306
REMARK  132  A    between atoms: _313  and  _314
REMARK  133  A    between atoms: _319  and  _321
REMARK  134  A    between atoms: _321  and  _322
REMARK  135  A    between atoms: _321  and  _324
REMARK  136  A    between atoms: _324  and  _325
REMARK  137  A    between atoms: _328  and  _330
REMARK  138  A    between atoms: _330  and  _331
REMARK  139  A    between atoms: _330  and  _333
REMARK  140  A    between atoms: _333  and  _334
REMARK  141  A    between atoms: _339  and  _340
REMARK  142  A    between atoms: _342  and  _344
REMARK  143  A    between atoms: _344  and  _345
REMARK  144  A    between atoms: _344  and  _347
REMARK  145  A    between atoms: _347  and  _348
REMARK  146  A    between atoms: _348  and  _349
REMARK  147  A    between atoms: _349  and  _350
REMARK  148  A    between atoms: _350  and  _351
REMARK                            x       y       z     vdW  Elec       q    Type
REMARK                         _______ _______ _______ _____ _____    ______ ____
ROOT
ATOM      1  C   PHE A   4      -9.020  -5.471  -3.793  0.00  0.00    +0.244 C 
ATOM      2  N   PRO A   5      -8.410  -5.400  -2.587  0.00  0.00    -0.272 N 
ATOM      3  CD  PRO A   5      -9.056  -5.198  -1.275  0.00  0.00    +0.094 C 
ATOM      4  CG  PRO A   5      -7.972  -4.552  -0.473  0.00  0.00    +0.024 C 
ATOM      5  CB  PRO A   5      -6.735  -5.197  -0.942  0.00  0.00    +0.031 C 
ATOM      6  CA  PRO A   5      -6.948  -5.457  -2.446  0.00  0.00    +0.152 C 
ATOM      7  O   PHE A   4      -8.406  -5.655  -4.844  0.00  0.00    -0.273 OA
ENDROOT
BRANCH   6   8
ATOM      8  C   PRO A   5      -6.252  -6.770  -2.831  0.00  0.00    +0.241 C 
ATOM      9  O   PRO A   5      -5.021  -6.834  -2.802  0.00  0.00    -0.273 OA
ATOM     10  N   THR A   6      -7.017  -7.802  -3.176  0.00  0.00    -0.295 N 
ATOM     11  H   THR A   6      -8.048  -7.677  -3.225  0.00  0.00    +0.150 HD
BRANCH  10  12
ATOM     12  CA  THR A   6      -6.439  -9.107  -3.487  0.00  0.00    +0.176 C 
BRANCH  12  13
ATOM     13  C   THR A   6      -6.579  -9.429  -4.966  0.00  0.00    +0.243 C 
ATOM     14  O   THR A   6      -7.683  -9.377  -5.511  0.00  0.00    -0.273 OA
ATOM     15  N   TYR A   7      -5.462  -9.767  -5.604  0.00  0.00    -0.297 N 
ATOM     16  H   TYR A   7      -4.555  -9.733  -5.097  0.00  0.00    +0.150 HD
BRANCH  15  17
ATOM     17  CA  TYR A   7      -5.485 -10.185  -7.002  0.00  0.00    +0.153 C 
BRANCH  17  18
ATOM     18  C   TYR A   7      -6.080 -11.584  -7.147  0.00  0.00    +0.241 C 
ATOM     19  O   TYR A   7      -5.681 -12.514  -6.444  0.00  0.00    -0.273 OA
ATOM     20  N   LYS A   8      -7.025 -11.716  -8.072  0.00  0.00    -0.298 N 
ATOM     21  H   LYS A   8      -7.373 -10.861  -8.552  0.00  0.00    +0.150 HD
BRANCH  20  22
ATOM     22  CA  LYS A   8      -7.596 -13.004  -8.445  0.00  0.00    +0.137 C 
BRANCH  22  23
ATOM     23  C   LYS A   8      -7.922 -12.972  -9.931  0.00  0.00    +0.227 C 
ATOM     24  O   LYS A   8      -8.593 -12.047 -10.400  0.00  0.00    -0.286 OA
ENDBRANCH  22  23
BRANCH  22  25
ATOM     25  CB  LYS A   8      -8.861 -13.293  -7.628  0.00  0.00    +0.028 C 
BRANCH  25  26
ATOM     26  CG  LYS A   8      -9.567 -14.594  -7.989  0.00  0.00    -0.000 C 
BRANCH  26  27
ATOM     27  CD  LYS A   8     -10.900 -14.727  -7.265  0.00  0.00    -0.024 C 
BRANCH  27  28
ATOM     28  CE  LYS A   8     -11.781 -15.807  -7.893  0.00  0.00    -0.086 C 
BRANCH  28  29
ATOM     29  NZ  LYS A   8     -11.161 -17.164  -7.831  0.00  0.00    +0.380 N 
ATOM     30  HZ1 LYS A   8     -10.997 -17.424  -6.837  0.00  0.00    -0.089 HD
ATOM     31  HZ2 LYS A   8     -11.801 -17.856  -8.270  0.00  0.00    -0.089 HD
ATOM     32  HZ3 LYS A   8     -10.255 -17.154  -8.342  0.00  0.00    -0.089 HD
ENDBRANCH  28  29
ENDBRANCH  27  28
ENDBRANCH  26  27
ENDBRANCH  25  26
ENDBRANCH  22  25
ENDBRANCH  20  22
ENDBRANCH  17  18
BRANCH  17  33
ATOM     33  CB  TYR A   7      -4.082 -10.154  -7.619  0.00  0.00    +0.055 C 
BRANCH  33  34
ATOM     34  CG  TYR A   7      -4.023 -10.787  -8.996  0.00  0.00    -0.020 A 
ATOM     35  CD2 TYR A   7      -3.735 -12.144  -9.150  0.00  0.00    -0.001 A 
ATOM     36  CE2 TYR A   7      -3.699 -12.734 -10.407  0.00  0.00    +0.036 A 
ATOM     37  CZ  TYR A   7      -3.946 -11.959 -11.531  0.00  0.00    +0.134 A 
ATOM     38  CE1 TYR A   7      -4.233 -10.614 -11.406  0.00  0.00    +0.036 A 
ATOM     39  CD1 TYR A   7      -4.271 -10.033 -10.145  0.00  0.00    -0.001 A 
BRANCH  37  40
ATOM     40  OH  TYR A   7      -3.909 -12.533 -12.780  0.00  0.00    -0.506 OA
ATOM     41  HH  TYR A   7      -3.009 -12.912 -12.941  0.00  0.00    +0.292 HD
ENDBRANCH  37  40
ENDBRANCH  33  34
ENDBRANCH  17  33
ENDBRANCH  15  17
ENDBRANCH  12  13
BRANCH  12  42
ATOM     42  CB  THR A   6      -7.103 -10.230  -2.653  0.00  0.00    +0.137 C 
ATOM     43  CG2 THR A   6      -6.382 -11.562  -2.844  0.00  0.00    +0.034 C 
BRANCH  42  44
ATOM     44  OG1 THR A   6      -7.076  -9.871  -1.267  0.00  0.00    -0.382 OA
ATOM     45  HG1 THR A   6      -7.500 -10.589  -0.733  0.00  0.00    +0.210 HD
ENDBRANCH  42  44
ENDBRANCH  12  42
ENDBRANCH  10  12
ENDBRANCH   6   8
BRANCH   1  46
ATOM     46  CA  PHE A   4     -10.533  -5.269  -3.843  0.00  0.00    +0.153 C 
BRANCH  46  49
ATOM     47  C   MET A   3     -10.359  -3.195  -5.127  0.00  0.00    +0.241 C 
ATOM     48  O   MET A   3      -9.774  -2.628  -4.207  0.00  0.00    -0.273 OA
ATOM     49  N   PHE A   4     -10.833  -4.440  -5.016  0.00  0.00    -0.297 N 
ATOM     50  H   PHE A   4     -11.426  -4.829  -5.776  0.00  0.00    +0.150 HD
BRANCH  47  51
ATOM     51  CA  MET A   3     -10.543  -2.473  -6.466  0.00  0.00    +0.149 C 
BRANCH  51  53
ATOM     52  C   VAL A   2     -10.773  -4.175  -8.216  0.00  0.00    +0.241 C 
ATOM     53  N   MET A   3     -11.320  -3.222  -7.458  0.00  0.00    -0.297 N 
ATOM     54  H   MET A   3     -12.330  -3.004  -7.575  0.00  0.00    +0.150 HD
ATOM     55  O   VAL A   2      -9.596  -4.500  -8.152  0.00  0.00    -0.273 OA
BRANCH  52  56
ATOM     56  CA  VAL A   2     -11.717  -4.905  -9.174  0.00  0.00    +0.148 C 
BRANCH  56  59
ATOM     57  C   ALA A   1     -13.370  -5.490  -7.489  0.00  0.00    +0.238 C 
ATOM     58  O   ALA A   1     -12.552  -6.169  -6.871  0.00  0.00    -0.274 OA
ATOM     59  N   VAL A   2     -13.079  -4.877  -8.638  0.00  0.00    -0.297 N 
ATOM     60  H   VAL A   2     -13.827  -4.375  -9.158  0.00  0.00    +0.150 HD
BRANCH  57  61
ATOM     61  CA  ALA A   1     -14.785  -5.297  -6.951  0.00  0.00    +0.145 C 
ATOM     62  CB  ALA A   1     -14.823  -4.141  -5.966  0.00  0.00    +0.028 C 
BRANCH  61  63
ATOM     63  N   ALA A   1     -15.302  -6.512  -6.322  0.00  0.00    -0.238 NA
ATOM     64  H   ALA A   1     -15.275  -6.588  -5.285  0.00  0.00    +0.142 HD
ENDBRANCH  61  63
ENDBRANCH  57  61
ENDBRANCH  56  59
BRANCH  56  65
ATOM     65  CB  VAL A   2     -11.610  -4.355 -10.637  0.00  0.00    +0.027 C 
ATOM     66  CG2 VAL A   2     -11.632  -2.830 -10.678  0.00  0.00    +0.002 C 
ATOM     67  CG1 VAL A   2     -10.361  -4.900 -11.322  0.00  0.00    +0.002 C 
ENDBRANCH  56  65
ENDBRANCH  52  56
ENDBRANCH  51  53
BRANCH  51  68
ATOM     68  CB  MET A   3     -11.123  -1.070  -6.244  0.00  0.00    +0.041 C 
BRANCH  68  69
ATOM     69  CG  MET A   3     -11.093  -0.152  -7.479  0.00  0.00    +0.060 C 
BRANCH  69  70
ATOM     70  SD  MET A   3      -9.525  -0.155  -8.393  0.00  0.00    -0.139 S 
ATOM     71  CE  MET A   3      -8.376   0.462  -7.142  0.00  0.00    +0.069 C 
ENDBRANCH  69  70
ENDBRANCH  68  69
ENDBRANCH  51  68
ENDBRANCH  47  51
ENDBRANCH  46  49
BRANCH  46  72
ATOM     72  CB  PHE A   4     -11.262  -6.614  -3.942  0.00  0.00    +0.055 C 
BRANCH  72  73
ATOM     73  CG  PHE A   4     -11.175  -7.462  -2.699  0.00  0.00    -0.020 A 
ATOM     74  CD2 PHE A   4     -11.810  -7.073  -1.522  0.00  0.00    -0.004 A 
ATOM     75  CE2 PHE A   4     -11.738  -7.871  -0.377  0.00  0.00    -0.000 A 
ATOM     76  CZ  PHE A   4     -11.028  -9.050  -0.407  0.00  0.00    -0.000 A 
ATOM     77  CE1 PHE A   4     -10.400  -9.455  -1.569  0.00  0.00    -0.000 A 
ATOM     78  CD1 PHE A   4     -10.474  -8.656  -2.713  0.00  0.00    -0.004 A 
ENDBRANCH  72  73
ENDBRANCH  46  72
ENDBRANCH   1  46
TORSDOF 31
REMARK  Name = ../refined-set-2016/3f1a/3f1a_pocket.pdb
REMARK  148 active torsions:
REMARK  status: ('A' for Active; 'I' for Inactive)
REMARK    1  A    between atoms: _1  and  _3
REMARK    2  A    between atoms: _3  and  _4
REMARK    3  A    between atoms: _3  and  _6
REMARK    4  A    between atoms: _6  and  _7
REMARK    5  A    between atoms: _13  and  _15
REMARK    6  A    between atoms: _15  and  _16
REMARK    7  A    between atoms: _15  and  _18
REMARK    8  A    between atoms: _18  and  _19
REMARK    9  A    between atoms: _22  and  _24
REMARK   10  A    between atoms: _24  and  _25
REMARK   11  A    between atoms: _27  and  _29
REMARK   12  A    between atoms: _29  and  _30
REMARK   13  A    between atoms: _32  and  _34
REMARK   14  A    between atoms: _34  and  _35
REMARK   15  A    between atoms: _34  and  _37
REMARK   16  A    between atoms: _35  and  _36
REMARK   17  A    between atoms: _35  and  _41
REMARK   18  A    between atoms: _36  and  CA_356
REMARK   19  A    between atoms: _37  and  _38
REMARK   20  A    between atoms: _41  and  _43
REMARK   21  A    between atoms: _43  and  _44
REMARK   22  A    between atoms: _43  and  _46
REMARK   23  A    between atoms: _46  and  _47
REMARK   24  A    between atoms: _50  and  _52
REMARK   25  A    between atoms: _52  and  _53
REMARK   26  A    between atoms: _56  and  _58
REMARK   27  A    between atoms: _58  and  _59
REMARK   28  A    between atoms: _58  and  _61
REMARK   29  A    between atoms: _61  and  _62
REMARK   30  A    between atoms: _67  and  _69
REMARK   31  A    between atoms: _69  and  _70
REMARK   32  A    between atoms: _73  and  _75
REMARK   33  A    between atoms: _75  and  _76
REMARK   34  A    between atoms: _75  and  _78
REMARK   35  A    between atoms: _78  and  _79
REMARK   36  A    between atoms: _85  and  _87
REMARK   37  A    between atoms: _87  and  _88
REMARK   38  A    between atoms: _87  and  _90
REMARK   39  A    between atoms: _90  and  _91
REMARK   40  A    between atoms: _96  and  _98
REMARK   41  A    between atoms: _98  and  _99
REMARK   42  A    between atoms: _98  and  _101
REMARK   43  A    between atoms: _101  and  _102
REMARK   44  A    between atoms: _108  and  _110
REMARK   45  A    between atoms: _110  and  _111
REMARK   46  A    between atoms: _110  and  _113
REMARK   47  A    between atoms: _113  and  _114
REMARK   48  A    between atoms: _117  and  _119
REMARK   49  A    between atoms: _119  and  _120
REMARK   50  A    between atoms: _119  and  _122
REMARK   51  A    between atoms: _122  and  _123
REMARK   52  A    between atoms: _123  and  _124
REMARK   53  A    between atoms: _124  and  _126
REMARK   54  A    between atoms: _126  and  CA_356
REMARK   55  A    between atoms: _127  and  _129
REMARK   56  A    between atoms: _129  and  _130
REMARK   57  A    between atoms: _129  and  _132
REMARK   58  A    between atoms: _132  and  _133
REMARK   59  A    between atoms: _143  and  _145
REMARK   60  A    between atoms: _145  and  _146
REMARK   61  A    between atoms: _145  and  _148
REMARK   62  A    between atoms: _148  and  _149
REMARK   63  A    between atoms: _152  and  _154
REMARK   64  A    between atoms: _154  and  _155
REMARK   65  A    between atoms: _154  and  _157
REMARK   66  A    between atoms: _157  and  _158
REMARK   67  A    between atoms: _163  and  _165
REMARK   68  A    between atoms: _165  and  _166
REMARK   69  A    between atoms: _165  and  _168
REMARK   70  A    between atoms: _168  and  _169
REMARK   71  A    between atoms: _172  and  _174
REMARK   72  A    between atoms: _174  and  _175
REMARK   73  A    between atoms: _174  and  _177
REMARK   74  A    between atoms: _177  and  _178
REMARK   75  A    between atoms: _181  and  _183
REMARK   76  A    between atoms: _183  and  _184
REMARK   77  A    between atoms: _187  and  _189
REMARK   78  A    between atoms: _189  and  _190
REMARK   79  A    between atoms: _189  and  _192
REMARK   80  A    between atoms: _195  and  _197
REMARK   81  A    between atoms: _197  and  _198
REMARK   82  A    between atoms: _197  and  _200
REMARK   83  A    between atoms: _200  and  _201
REMARK   84  A    between atoms: _205  and  ZN_355
REMARK   85  A    between atoms: _206  and  _208
REMARK   86  A    between atoms: _208  and  _209
REMARK   87  A    between atoms: _208  and  _211
REMARK   88  A    between atoms: _211  and  _212
REMARK   89  A    between atoms: _212  and  _213
REMARK   90  A    between atoms: _216  and  _218
REMARK   91  A    between atoms: _218  and  _219
REMARK   92  A    between atoms: _218  and  _221
REMARK   93  A    between atoms: _221  and  _222
REMARK   94  A    between atoms: _225  and  _227
REMARK   95  A    between atoms: _227  and  _228
REMARK   96  A    between atoms: _227  and  _230
REMARK   97  A    between atoms: _230  and  _231
REMARK   98  A    between atoms: _235  and  ZN_355
REMARK   99  A    between atoms: _236  and  _238
REMARK  100  A    between atoms: _238  and  _239
REMARK  101  A    between atoms: _238  and  _241
REMARK  102  A    between atoms: _241  and  _242
REMARK  103  A    between atoms: _244  and  _246
REMARK  104  A    between atoms: _246  and  _247
REMARK  105  A    between atoms: _246  and  _249
REMARK  106  A    between atoms: _249  and  _250
REMARK  107  A    between atoms: _253  and  _255
REMARK  108  A    between atoms: _255  and  _256
REMARK  109  A    between atoms: _258  and  _260
REMARK  110  A    between atoms: _260  and  _261
REMARK  111  A    between atoms: _260  and  _263
REMARK  112  A    between atoms: _263  and  _264
REMARK  113  A    between atoms: _268  and  ZN_355
REMARK  114  A    between atoms: _269  and  _271
REMARK  115  A    between atoms: _271  and  _272
REMARK  116  A    between atoms: _271  and  _274
REMARK  117  A    between atoms: _274  and  _275
REMARK  118  A    between atoms: _277  and  _279
REMARK  119  A    between atoms: _279  and  _280
REMARK  120  A    between atoms: _283  and  _285
REMARK  121  A    between atoms: _285  and  _286
REMARK  122  A    between atoms: _285  and  _288
REMARK  123  A    between atoms: _291  and  _293
REMARK  124  A    between atoms: _293  and  _294
REMARK  125  A    between atoms: _293  and  _296
REMARK  126  A    between atoms: _296  and  _297
REMARK  127  A    between atoms: _297  and  _298
REMARK  128  A    between atoms: _300  and  _302
REMARK  129  A    between atoms: _302  and  _303
REMARK  130  A    between atoms: _302  and  _305
REMARK  131  A    between atoms: _305  and  _306
REMARK  132  A    between atoms: _313  and  _314
REMARK  133  A    between atoms: _319  and  _321
REMARK  134  A    between atoms: _321  and  _322
REMARK  135  A    between atoms: _321  and  _324
REMARK  136  A    between atoms: _324  and  _325
REMARK  137  A    between atoms: _328  and  _330
REMARK  138  A    between atoms: _330  and  _331
REMARK  139  A    between atoms: _330  and  _333
REMARK  140  A    between atoms: _333  and  _334
REMARK  141  A    between atoms: _339  and  _340
REMARK  142  A    between atoms: _342  and  _344
REMARK  143  A    between atoms: _344  and  _345
REMARK  144  A    between atoms: _344  and  _347
REMARK  145  A    between atoms: _347  and  _348
REMARK  146  A    between atoms: _348  and  _349
REMARK  147  A    between atoms: _349  and  _350
REMARK  148  A    between atoms: _350  and  _351
REMARK                            x       y       z     vdW  Elec       q    Type
REMARK                         _______ _______ _______ _____ _____    ______ ____
ROOT
ATOM      1  O   HOH     1      -1.254   1.141  -5.248  0.00  0.00    +0.000 OA
ENDROOT
TORSDOF 0
REMARK  Name = ../refined-set-2016/3f1a/3f1a_pocket.pdb
REMARK  148 active torsions:
REMARK  status: ('A' for Active; 'I' for Inactive)
REMARK    1  A    between atoms: _1  and  _3
REMARK    2  A    between atoms: _3  and  _4
REMARK    3  A    between atoms: _3  and  _6
REMARK    4  A    between atoms: _6  and  _7
REMARK    5  A    between atoms: _13  and  _15
REMARK    6  A    between atoms: _15  and  _16
REMARK    7  A    between atoms: _15  and  _18
REMARK    8  A    between atoms: _18  and  _19
REMARK    9  A    between atoms: _22  and  _24
REMARK   10  A    between atoms: _24  and  _25
REMARK   11  A    between atoms: _27  and  _29
REMARK   12  A    between atoms: _29  and  _30
REMARK   13  A    between atoms: _32  and  _34
REMARK   14  A    between atoms: _34  and  _35
REMARK   15  A    between atoms: _34  and  _37
REMARK   16  A    between atoms: _35  and  _36
REMARK   17  A    between atoms: _35  and  _41
REMARK   18  A    between atoms: _36  and  CA_356
REMARK   19  A    between atoms: _37  and  _38
REMARK   20  A    between atoms: _41  and  _43
REMARK   21  A    between atoms: _43  and  _44
REMARK   22  A    between atoms: _43  and  _46
REMARK   23  A    between atoms: _46  and  _47
REMARK   24  A    between atoms: _50  and  _52
REMARK   25  A    between atoms: _52  and  _53
REMARK   26  A    between atoms: _56  and  _58
REMARK   27  A    between atoms: _58  and  _59
REMARK   28  A    between atoms: _58  and  _61
REMARK   29  A    between atoms: _61  and  _62
REMARK   30  A    between atoms: _67  and  _69
REMARK   31  A    between atoms: _69  and  _70
REMARK   32  A    between atoms: _73  and  _75
REMARK   33  A    between atoms: _75  and  _76
REMARK   34  A    between atoms: _75  and  _78
REMARK   35  A    between atoms: _78  and  _79
REMARK   36  A    between atoms: _85  and  _87
REMARK   37  A    between atoms: _87  and  _88
REMARK   38  A    between atoms: _87  and  _90
REMARK   39  A    between atoms: _90  and  _91
REMARK   40  A    between atoms: _96  and  _98
REMARK   41  A    between atoms: _98  and  _99
REMARK   42  A    between atoms: _98  and  _101
REMARK   43  A    between atoms: _101  and  _102
REMARK   44  A    between atoms: _108  and  _110
REMARK   45  A    between atoms: _110  and  _111
REMARK   46  A    between atoms: _110  and  _113
REMARK   47  A    between atoms: _113  and  _114
REMARK   48  A    between atoms: _117  and  _119
REMARK   49  A    between atoms: _119  and  _120
REMARK   50  A    between atoms: _119  and  _122
REMARK   51  A    between atoms: _122  and  _123
REMARK   52  A    between atoms: _123  and  _124
REMARK   53  A    between atoms: _124  and  _126
REMARK   54  A    between atoms: _126  and  CA_356
REMARK   55  A    between atoms: _127  and  _129
REMARK   56  A    between atoms: _129  and  _130
REMARK   57  A    between atoms: _129  and  _132
REMARK   58  A    between atoms: _132  and  _133
REMARK   59  A    between atoms: _143  and  _145
REMARK   60  A    between atoms: _145  and  _146
REMARK   61  A    between atoms: _145  and  _148
REMARK   62  A    between atoms: _148  and  _149
REMARK   63  A    between atoms: _152  and  _154
REMARK   64  A    between atoms: _154  and  _155
REMARK   65  A    between atoms: _154  and  _157
REMARK   66  A    between atoms: _157  and  _158
REMARK   67  A    between atoms: _163  and  _165
REMARK   68  A    between atoms: _165  and  _166
REMARK   69  A    between atoms: _165  and  _168
REMARK   70  A    between atoms: _168  and  _169
REMARK   71  A    between atoms: _172  and  _174
REMARK   72  A    between atoms: _174  and  _175
REMARK   73  A    between atoms: _174  and  _177
REMARK   74  A    between atoms: _177  and  _178
REMARK   75  A    between atoms: _181  and  _183
REMARK   76  A    between atoms: _183  and  _184
REMARK   77  A    between atoms: _187  and  _189
REMARK   78  A    between atoms: _189  and  _190
REMARK   79  A    between atoms: _189  and  _192
REMARK   80  A    between atoms: _195  and  _197
REMARK   81  A    between atoms: _197  and  _198
REMARK   82  A    between atoms: _197  and  _200
REMARK   83  A    between atoms: _200  and  _201
REMARK   84  A    between atoms: _205  and  ZN_355
REMARK   85  A    between atoms: _206  and  _208
REMARK   86  A    between atoms: _208  and  _209
REMARK   87  A    between atoms: _208  and  _211
REMARK   88  A    between atoms: _211  and  _212
REMARK   89  A    between atoms: _212  and  _213
REMARK   90  A    between atoms: _216  and  _218
REMARK   91  A    between atoms: _218  and  _219
REMARK   92  A    between atoms: _218  and  _221
REMARK   93  A    between atoms: _221  and  _222
REMARK   94  A    between atoms: _225  and  _227
REMARK   95  A    between atoms: _227  and  _228
REMARK   96  A    between atoms: _227  and  _230
REMARK   97  A    between atoms: _230  and  _231
REMARK   98  A    between atoms: _235  and  ZN_355
REMARK   99  A    between atoms: _236  and  _238
REMARK  100  A    between atoms: _238  and  _239
REMARK  101  A    between atoms: _238  and  _241
REMARK  102  A    between atoms: _241  and  _242
REMARK  103  A    between atoms: _244  and  _246
REMARK  104  A    between atoms: _246  and  _247
REMARK  105  A    between atoms: _246  and  _249
REMARK  106  A    between atoms: _249  and  _250
REMARK  107  A    between atoms: _253  and  _255
REMARK  108  A    between atoms: _255  and  _256
REMARK  109  A    between atoms: _258  and  _260
REMARK  110  A    between atoms: _260  and  _261
REMARK  111  A    between atoms: _260  and  _263
REMARK  112  A    between atoms: _263  and  _264
REMARK  113  A    between atoms: _268  and  ZN_355
REMARK  114  A    between atoms: _269  and  _271
REMARK  115  A    between atoms: _271  and  _272
REMARK  116  A    between atoms: _271  and  _274
REMARK  117  A    between atoms: _274  and  _275
REMARK  118  A    between atoms: _277  and  _279
REMARK  119  A    between atoms: _279  and  _280
REMARK  120  A    between atoms: _283  and  _285
REMARK  121  A    between atoms: _285  and  _286
REMARK  122  A    between atoms: _285  and  _288
REMARK  123  A    between atoms: _291  and  _293
REMARK  124  A    between atoms: _293  and  _294
REMARK  125  A    between atoms: _293  and  _296
REMARK  126  A    between atoms: _296  and  _297
REMARK  127  A    between atoms: _297  and  _298
REMARK  128  A    between atoms: _300  and  _302
REMARK  129  A    between atoms: _302  and  _303
REMARK  130  A    between atoms: _302  and  _305
REMARK  131  A    between atoms: _305  and  _306
REMARK  132  A    between atoms: _313  and  _314
REMARK  133  A    between atoms: _319  and  _321
REMARK  134  A    between atoms: _321  and  _322
REMARK  135  A    between atoms: _321  and  _324
REMARK  136  A    between atoms: _324  and  _325
REMARK  137  A    between atoms: _328  and  _330
REMARK  138  A    between atoms: _330  and  _331
REMARK  139  A    between atoms: _330  and  _333
REMARK  140  A    between atoms: _333  and  _334
REMARK  141  A    between atoms: _339  and  _340
REMARK  142  A    between atoms: _342  and  _344
REMARK  143  A    between atoms: _344  and  _345
REMARK  144  A    between atoms: _344  and  _347
REMARK  145  A    between atoms: _347  and  _348
REMARK  146  A    between atoms: _348  and  _349
REMARK  147  A    between atoms: _349  and  _350
REMARK  148  A    between atoms: _350  and  _351
REMARK                            x       y       z     vdW  Elec       q    Type
REMARK                         _______ _______ _______ _____ _____    ______ ____
ROOT
ATOM      1  O   HOH     1      -6.219  -1.211   1.479  0.00  0.00    +0.000 OA
ENDROOT
TORSDOF 0
REMARK  Name = ../refined-set-2016/3f1a/3f1a_pocket.pdb
REMARK  148 active torsions:
REMARK  status: ('A' for Active; 'I' for Inactive)
REMARK    1  A    between atoms: _1  and  _3
REMARK    2  A    between atoms: _3  and  _4
REMARK    3  A    between atoms: _3  and  _6
REMARK    4  A    between atoms: _6  and  _7
REMARK    5  A    between atoms: _13  and  _15
REMARK    6  A    between atoms: _15  and  _16
REMARK    7  A    between atoms: _15  and  _18
REMARK    8  A    between atoms: _18  and  _19
REMARK    9  A    between atoms: _22  and  _24
REMARK   10  A    between atoms: _24  and  _25
REMARK   11  A    between atoms: _27  and  _29
REMARK   12  A    between atoms: _29  and  _30
REMARK   13  A    between atoms: _32  and  _34
REMARK   14  A    between atoms: _34  and  _35
REMARK   15  A    between atoms: _34  and  _37
REMARK   16  A    between atoms: _35  and  _36
REMARK   17  A    between atoms: _35  and  _41
REMARK   18  A    between atoms: _36  and  CA_356
REMARK   19  A    between atoms: _37  and  _38
REMARK   20  A    between atoms: _41  and  _43
REMARK   21  A    between atoms: _43  and  _44
REMARK   22  A    between atoms: _43  and  _46
REMARK   23  A    between atoms: _46  and  _47
REMARK   24  A    between atoms: _50  and  _52
REMARK   25  A    between atoms: _52  and  _53
REMARK   26  A    between atoms: _56  and  _58
REMARK   27  A    between atoms: _58  and  _59
REMARK   28  A    between atoms: _58  and  _61
REMARK   29  A    between atoms: _61  and  _62
REMARK   30  A    between atoms: _67  and  _69
REMARK   31  A    between atoms: _69  and  _70
REMARK   32  A    between atoms: _73  and  _75
REMARK   33  A    between atoms: _75  and  _76
REMARK   34  A    between atoms: _75  and  _78
REMARK   35  A    between atoms: _78  and  _79
REMARK   36  A    between atoms: _85  and  _87
REMARK   37  A    between atoms: _87  and  _88
REMARK   38  A    between atoms: _87  and  _90
REMARK   39  A    between atoms: _90  and  _91
REMARK   40  A    between atoms: _96  and  _98
REMARK   41  A    between atoms: _98  and  _99
REMARK   42  A    between atoms: _98  and  _101
REMARK   43  A    between atoms: _101  and  _102
REMARK   44  A    between atoms: _108  and  _110
REMARK   45  A    between atoms: _110  and  _111
REMARK   46  A    between atoms: _110  and  _113
REMARK   47  A    between atoms: _113  and  _114
REMARK   48  A    between atoms: _117  and  _119
REMARK   49  A    between atoms: _119  and  _120
REMARK   50  A    between atoms: _119  and  _122
REMARK   51  A    between atoms: _122  and  _123
REMARK   52  A    between atoms: _123  and  _124
REMARK   53  A    between atoms: _124  and  _126
REMARK   54  A    between atoms: _126  and  CA_356
REMARK   55  A    between atoms: _127  and  _129
REMARK   56  A    between atoms: _129  and  _130
REMARK   57  A    between atoms: _129  and  _132
REMARK   58  A    between atoms: _132  and  _133
REMARK   59  A    between atoms: _143  and  _145
REMARK   60  A    between atoms: _145  and  _146
REMARK   61  A    between atoms: _145  and  _148
REMARK   62  A    between atoms: _148  and  _149
REMARK   63  A    between atoms: _152  and  _154
REMARK   64  A    between atoms: _154  and  _155
REMARK   65  A    between atoms: _154  and  _157
REMARK   66  A    between atoms: _157  and  _158
REMARK   67  A    between atoms: _163  and  _165
REMARK   68  A    between atoms: _165  and  _166
REMARK   69  A    between atoms: _165  and  _168
REMARK   70  A    between atoms: _168  and  _169
REMARK   71  A    between atoms: _172  and  _174
REMARK   72  A    between atoms: _174  and  _175
REMARK   73  A    between atoms: _174  and  _177
REMARK   74  A    between atoms: _177  and  _178
REMARK   75  A    between atoms: _181  and  _183
REMARK   76  A    between atoms: _183  and  _184
REMARK   77  A    between atoms: _187  and  _189
REMARK   78  A    between atoms: _189  and  _190
REMARK   79  A    between atoms: _189  and  _192
REMARK   80  A    between atoms: _195  and  _197
REMARK   81  A    between atoms: _197  and  _198
REMARK   82  A    between atoms: _197  and  _200
REMARK   83  A    between atoms: _200  and  _201
REMARK   84  A    between atoms: _205  and  ZN_355
REMARK   85  A    between atoms: _206  and  _208
REMARK   86  A    between atoms: _208  and  _209
REMARK   87  A    between atoms: _208  and  _211
REMARK   88  A    between atoms: _211  and  _212
REMARK   89  A    between atoms: _212  and  _213
REMARK   90  A    between atoms: _216  and  _218
REMARK   91  A    between atoms: _218  and  _219
REMARK   92  A    between atoms: _218  and  _221
REMARK   93  A    between atoms: _221  and  _222
REMARK   94  A    between atoms: _225  and  _227
REMARK   95  A    between atoms: _227  and  _228
REMARK   96  A    between atoms: _227  and  _230
REMARK   97  A    between atoms: _230  and  _231
REMARK   98  A    between atoms: _235  and  ZN_355
REMARK   99  A    between atoms: _236  and  _238
REMARK  100  A    between atoms: _238  and  _239
REMARK  101  A    between atoms: _238  and  _241
REMARK  102  A    between atoms: _241  and  _242
REMARK  103  A    between atoms: _244  and  _246
REMARK  104  A    between atoms: _246  and  _247
REMARK  105  A    between atoms: _246  and  _249
REMARK  106  A    between atoms: _249  and  _250
REMARK  107  A    between atoms: _253  and  _255
REMARK  108  A    between atoms: _255  and  _256
REMARK  109  A    between atoms: _258  and  _260
REMARK  110  A    between atoms: _260  and  _261
REMARK  111  A    between atoms: _260  and  _263
REMARK  112  A    between atoms: _263  and  _264
REMARK  113  A    between atoms: _268  and  ZN_355
REMARK  114  A    between atoms: _269  and  _271
REMARK  115  A    between atoms: _271  and  _272
REMARK  116  A    between atoms: _271  and  _274
REMARK  117  A    between atoms: _274  and  _275
REMARK  118  A    between atoms: _277  and  _279
REMARK  119  A    between atoms: _279  and  _280
REMARK  120  A    between atoms: _283  and  _285
REMARK  121  A    between atoms: _285  and  _286
REMARK  122  A    between atoms: _285  and  _288
REMARK  123  A    between atoms: _291  and  _293
REMARK  124  A    between atoms: _293  and  _294
REMARK  125  A    between atoms: _293  and  _296
REMARK  126  A    between atoms: _296  and  _297
REMARK  127  A    between atoms: _297  and  _298
REMARK  128  A    between atoms: _300  and  _302
REMARK  129  A    between atoms: _302  and  _303
REMARK  130  A    between atoms: _302  and  _305
REMARK  131  A    between atoms: _305  and  _306
REMARK  132  A    between atoms: _313  and  _314
REMARK  133  A    between atoms: _319  and  _321
REMARK  134  A    between atoms: _321  and  _322
REMARK  135  A    between atoms: _321  and  _324
REMARK  136  A    between atoms: _324  and  _325
REMARK  137  A    between atoms: _328  and  _330
REMARK  138  A    between atoms: _330  and  _331
REMARK  139  A    between atoms: _330  and  _333
REMARK  140  A    between atoms: _333  and  _334
REMARK  141  A    between atoms: _339  and  _340
REMARK  142  A    between atoms: _342  and  _344
REMARK  143  A    between atoms: _344  and  _345
REMARK  144  A    between atoms: _344  and  _347
REMARK  145  A    between atoms: _347  and  _348
REMARK  146  A    between atoms: _348  and  _349
REMARK  147  A    between atoms: _349  and  _350
REMARK  148  A    between atoms: _350  and  _351
REMARK                            x       y       z     vdW  Elec       q    Type
REMARK                         _______ _______ _______ _____ _____    ______ ____
ROOT
ATOM      1  O   HOH     1       3.435  -1.172  -2.593  0.00  0.00    +0.000 OA
ENDROOT
TORSDOF 0
REMARK  Name = ../refined-set-2016/3f1a/3f1a_pocket.pdb
REMARK  148 active torsions:
REMARK  status: ('A' for Active; 'I' for Inactive)
REMARK    1  A    between atoms: _1  and  _3
REMARK    2  A    between atoms: _3  and  _4
REMARK    3  A    between atoms: _3  and  _6
REMARK    4  A    between atoms: _6  and  _7
REMARK    5  A    between atoms: _13  and  _15
REMARK    6  A    between atoms: _15  and  _16
REMARK    7  A    between atoms: _15  and  _18
REMARK    8  A    between atoms: _18  and  _19
REMARK    9  A    between atoms: _22  and  _24
REMARK   10  A    between atoms: _24  and  _25
REMARK   11  A    between atoms: _27  and  _29
REMARK   12  A    between atoms: _29  and  _30
REMARK   13  A    between atoms: _32  and  _34
REMARK   14  A    between atoms: _34  and  _35
REMARK   15  A    between atoms: _34  and  _37
REMARK   16  A    between atoms: _35  and  _36
REMARK   17  A    between atoms: _35  and  _41
REMARK   18  A    between atoms: _36  and  CA_356
REMARK   19  A    between atoms: _37  and  _38
REMARK   20  A    between atoms: _41  and  _43
REMARK   21  A    between atoms: _43  and  _44
REMARK   22  A    between atoms: _43  and  _46
REMARK   23  A    between atoms: _46  and  _47
REMARK   24  A    between atoms: _50  and  _52
REMARK   25  A    between atoms: _52  and  _53
REMARK   26  A    between atoms: _56  and  _58
REMARK   27  A    between atoms: _58  and  _59
REMARK   28  A    between atoms: _58  and  _61
REMARK   29  A    between atoms: _61  and  _62
REMARK   30  A    between atoms: _67  and  _69
REMARK   31  A    between atoms: _69  and  _70
REMARK   32  A    between atoms: _73  and  _75
REMARK   33  A    between atoms: _75  and  _76
REMARK   34  A    between atoms: _75  and  _78
REMARK   35  A    between atoms: _78  and  _79
REMARK   36  A    between atoms: _85  and  _87
REMARK   37  A    between atoms: _87  and  _88
REMARK   38  A    between atoms: _87  and  _90
REMARK   39  A    between atoms: _90  and  _91
REMARK   40  A    between atoms: _96  and  _98
REMARK   41  A    between atoms: _98  and  _99
REMARK   42  A    between atoms: _98  and  _101
REMARK   43  A    between atoms: _101  and  _102
REMARK   44  A    between atoms: _108  and  _110
REMARK   45  A    between atoms: _110  and  _111
REMARK   46  A    between atoms: _110  and  _113
REMARK   47  A    between atoms: _113  and  _114
REMARK   48  A    between atoms: _117  and  _119
REMARK   49  A    between atoms: _119  and  _120
REMARK   50  A    between atoms: _119  and  _122
REMARK   51  A    between atoms: _122  and  _123
REMARK   52  A    between atoms: _123  and  _124
REMARK   53  A    between atoms: _124  and  _126
REMARK   54  A    between atoms: _126  and  CA_356
REMARK   55  A    between atoms: _127  and  _129
REMARK   56  A    between atoms: _129  and  _130
REMARK   57  A    between atoms: _129  and  _132
REMARK   58  A    between atoms: _132  and  _133
REMARK   59  A    between atoms: _143  and  _145
REMARK   60  A    between atoms: _145  and  _146
REMARK   61  A    between atoms: _145  and  _148
REMARK   62  A    between atoms: _148  and  _149
REMARK   63  A    between atoms: _152  and  _154
REMARK   64  A    between atoms: _154  and  _155
REMARK   65  A    between atoms: _154  and  _157
REMARK   66  A    between atoms: _157  and  _158
REMARK   67  A    between atoms: _163  and  _165
REMARK   68  A    between atoms: _165  and  _166
REMARK   69  A    between atoms: _165  and  _168
REMARK   70  A    between atoms: _168  and  _169
REMARK   71  A    between atoms: _172  and  _174
REMARK   72  A    between atoms: _174  and  _175
REMARK   73  A    between atoms: _174  and  _177
REMARK   74  A    between atoms: _177  and  _178
REMARK   75  A    between atoms: _181  and  _183
REMARK   76  A    between atoms: _183  and  _184
REMARK   77  A    between atoms: _187  and  _189
REMARK   78  A    between atoms: _189  and  _190
REMARK   79  A    between atoms: _189  and  _192
REMARK   80  A    between atoms: _195  and  _197
REMARK   81  A    between atoms: _197  and  _198
REMARK   82  A    between atoms: _197  and  _200
REMARK   83  A    between atoms: _200  and  _201
REMARK   84  A    between atoms: _205  and  ZN_355
REMARK   85  A    between atoms: _206  and  _208
REMARK   86  A    between atoms: _208  and  _209
REMARK   87  A    between atoms: _208  and  _211
REMARK   88  A    between atoms: _211  and  _212
REMARK   89  A    between atoms: _212  and  _213
REMARK   90  A    between atoms: _216  and  _218
REMARK   91  A    between atoms: _218  and  _219
REMARK   92  A    between atoms: _218  and  _221
REMARK   93  A    between atoms: _221  and  _222
REMARK   94  A    between atoms: _225  and  _227
REMARK   95  A    between atoms: _227  and  _228
REMARK   96  A    between atoms: _227  and  _230
REMARK   97  A    between atoms: _230  and  _231
REMARK   98  A    between atoms: _235  and  ZN_355
REMARK   99  A    between atoms: _236  and  _238
REMARK  100  A    between atoms: _238  and  _239
REMARK  101  A    between atoms: _238  and  _241
REMARK  102  A    between atoms: _241  and  _242
REMARK  103  A    between atoms: _244  and  _246
REMARK  104  A    between atoms: _246  and  _247
REMARK  105  A    between atoms: _246  and  _249
REMARK  106  A    between atoms: _249  and  _250
REMARK  107  A    between atoms: _253  and  _255
REMARK  108  A    between atoms: _255  and  _256
REMARK  109  A    between atoms: _258  and  _260
REMARK  110  A    between atoms: _260  and  _261
REMARK  111  A    between atoms: _260  and  _263
REMARK  112  A    between atoms: _263  and  _264
REMARK  113  A    between atoms: _268  and  ZN_355
REMARK  114  A    between atoms: _269  and  _271
REMARK  115  A    between atoms: _271  and  _272
REMARK  116  A    between atoms: _271  and  _274
REMARK  117  A    between atoms: _274  and  _275
REMARK  118  A    between atoms: _277  and  _279
REMARK  119  A    between atoms: _279  and  _280
REMARK  120  A    between atoms: _283  and  _285
REMARK  121  A    between atoms: _285  and  _286
REMARK  122  A    between atoms: _285  and  _288
REMARK  123  A    between atoms: _291  and  _293
REMARK  124  A    between atoms: _293  and  _294
REMARK  125  A    between atoms: _293  and  _296
REMARK  126  A    between atoms: _296  and  _297
REMARK  127  A    between atoms: _297  and  _298
REMARK  128  A    between atoms: _300  and  _302
REMARK  129  A    between atoms: _302  and  _303
REMARK  130  A    between atoms: _302  and  _305
REMARK  131  A    between atoms: _305  and  _306
REMARK  132  A    between atoms: _313  and  _314
REMARK  133  A    between atoms: _319  and  _321
REMARK  134  A    between atoms: _321  and  _322
REMARK  135  A    between atoms: _321  and  _324
REMARK  136  A    between atoms: _324  and  _325
REMARK  137  A    between atoms: _328  and  _330
REMARK  138  A    between atoms: _330  and  _331
REMARK  139  A    between atoms: _330  and  _333
REMARK  140  A    between atoms: _333  and  _334
REMARK  141  A    between atoms: _339  and  _340
REMARK  142  A    between atoms: _342  and  _344
REMARK  143  A    between atoms: _344  and  _345
REMARK  144  A    between atoms: _344  and  _347
REMARK  145  A    between atoms: _347  and  _348
REMARK  146  A    between atoms: _348  and  _349
REMARK  147  A    between atoms: _349  and  _350
REMARK  148  A    between atoms: _350  and  _351
REMARK                            x       y       z     vdW  Elec       q    Type
REMARK                         _______ _______ _______ _____ _____    ______ ____
ROOT
ATOM      1  O   HOH     1       0.385 -13.335  -9.020  0.00  0.00    +0.000 OA
ENDROOT
TORSDOF 0
REMARK  Name = ../refined-set-2016/3f1a/3f1a_pocket.pdb
REMARK  148 active torsions:
REMARK  status: ('A' for Active; 'I' for Inactive)
REMARK    1  A    between atoms: _1  and  _3
REMARK    2  A    between atoms: _3  and  _4
REMARK    3  A    between atoms: _3  and  _6
REMARK    4  A    between atoms: _6  and  _7
REMARK    5  A    between atoms: _13  and  _15
REMARK    6  A    between atoms: _15  and  _16
REMARK    7  A    between atoms: _15  and  _18
REMARK    8  A    between atoms: _18  and  _19
REMARK    9  A    between atoms: _22  and  _24
REMARK   10  A    between atoms: _24  and  _25
REMARK   11  A    between atoms: _27  and  _29
REMARK   12  A    between atoms: _29  and  _30
REMARK   13  A    between atoms: _32  and  _34
REMARK   14  A    between atoms: _34  and  _35
REMARK   15  A    between atoms: _34  and  _37
REMARK   16  A    between atoms: _35  and  _36
REMARK   17  A    between atoms: _35  and  _41
REMARK   18  A    between atoms: _36  and  CA_356
REMARK   19  A    between atoms: _37  and  _38
REMARK   20  A    between atoms: _41  and  _43
REMARK   21  A    between atoms: _43  and  _44
REMARK   22  A    between atoms: _43  and  _46
REMARK   23  A    between atoms: _46  and  _47
REMARK   24  A    between atoms: _50  and  _52
REMARK   25  A    between atoms: _52  and  _53
REMARK   26  A    between atoms: _56  and  _58
REMARK   27  A    between atoms: _58  and  _59
REMARK   28  A    between atoms: _58  and  _61
REMARK   29  A    between atoms: _61  and  _62
REMARK   30  A    between atoms: _67  and  _69
REMARK   31  A    between atoms: _69  and  _70
REMARK   32  A    between atoms: _73  and  _75
REMARK   33  A    between atoms: _75  and  _76
REMARK   34  A    between atoms: _75  and  _78
REMARK   35  A    between atoms: _78  and  _79
REMARK   36  A    between atoms: _85  and  _87
REMARK   37  A    between atoms: _87  and  _88
REMARK   38  A    between atoms: _87  and  _90
REMARK   39  A    between atoms: _90  and  _91
REMARK   40  A    between atoms: _96  and  _98
REMARK   41  A    between atoms: _98  and  _99
REMARK   42  A    between atoms: _98  and  _101
REMARK   43  A    between atoms: _101  and  _102
REMARK   44  A    between atoms: _108  and  _110
REMARK   45  A    between atoms: _110  and  _111
REMARK   46  A    between atoms: _110  and  _113
REMARK   47  A    between atoms: _113  and  _114
REMARK   48  A    between atoms: _117  and  _119
REMARK   49  A    between atoms: _119  and  _120
REMARK   50  A    between atoms: _119  and  _122
REMARK   51  A    between atoms: _122  and  _123
REMARK   52  A    between atoms: _123  and  _124
REMARK   53  A    between atoms: _124  and  _126
REMARK   54  A    between atoms: _126  and  CA_356
REMARK   55  A    between atoms: _127  and  _129
REMARK   56  A    between atoms: _129  and  _130
REMARK   57  A    between atoms: _129  and  _132
REMARK   58  A    between atoms: _132  and  _133
REMARK   59  A    between atoms: _143  and  _145
REMARK   60  A    between atoms: _145  and  _146
REMARK   61  A    between atoms: _145  and  _148
REMARK   62  A    between atoms: _148  and  _149
REMARK   63  A    between atoms: _152  and  _154
REMARK   64  A    between atoms: _154  and  _155
REMARK   65  A    between atoms: _154  and  _157
REMARK   66  A    between atoms: _157  and  _158
REMARK   67  A    between atoms: _163  and  _165
REMARK   68  A    between atoms: _165  and  _166
REMARK   69  A    between atoms: _165  and  _168
REMARK   70  A    between atoms: _168  and  _169
REMARK   71  A    between atoms: _172  and  _174
REMARK   72  A    between atoms: _174  and  _175
REMARK   73  A    between atoms: _174  and  _177
REMARK   74  A    between atoms: _177  and  _178
REMARK   75  A    between atoms: _181  and  _183
REMARK   76  A    between atoms: _183  and  _184
REMARK   77  A    between atoms: _187  and  _189
REMARK   78  A    between atoms: _189  and  _190
REMARK   79  A    between atoms: _189  and  _192
REMARK   80  A    between atoms: _195  and  _197
REMARK   81  A    between atoms: _197  and  _198
REMARK   82  A    between atoms: _197  and  _200
REMARK   83  A    between atoms: _200  and  _201
REMARK   84  A    between atoms: _205  and  ZN_355
REMARK   85  A    between atoms: _206  and  _208
REMARK   86  A    between atoms: _208  and  _209
REMARK   87  A    between atoms: _208  and  _211
REMARK   88  A    between atoms: _211  and  _212
REMARK   89  A    between atoms: _212  and  _213
REMARK   90  A    between atoms: _216  and  _218
REMARK   91  A    between atoms: _218  and  _219
REMARK   92  A    between atoms: _218  and  _221
REMARK   93  A    between atoms: _221  and  _222
REMARK   94  A    between atoms: _225  and  _227
REMARK   95  A    between atoms: _227  and  _228
REMARK   96  A    between atoms: _227  and  _230
REMARK   97  A    between atoms: _230  and  _231
REMARK   98  A    between atoms: _235  and  ZN_355
REMARK   99  A    between atoms: _236  and  _238
REMARK  100  A    between atoms: _238  and  _239
REMARK  101  A    between atoms: _238  and  _241
REMARK  102  A    between atoms: _241  and  _242
REMARK  103  A    between atoms: _244  and  _246
REMARK  104  A    between atoms: _246  and  _247
REMARK  105  A    between atoms: _246  and  _249
REMARK  106  A    between atoms: _249  and  _250
REMARK  107  A    between atoms: _253  and  _255
REMARK  108  A    between atoms: _255  and  _256
REMARK  109  A    between atoms: _258  and  _260
REMARK  110  A    between atoms: _260  and  _261
REMARK  111  A    between atoms: _260  and  _263
REMARK  112  A    between atoms: _263  and  _264
REMARK  113  A    between atoms: _268  and  ZN_355
REMARK  114  A    between atoms: _269  and  _271
REMARK  115  A    between atoms: _271  and  _272
REMARK  116  A    between atoms: _271  and  _274
REMARK  117  A    between atoms: _274  and  _275
REMARK  118  A    between atoms: _277  and  _279
REMARK  119  A    between atoms: _279  and  _280
REMARK  120  A    between atoms: _283  and  _285
REMARK  121  A    between atoms: _285  and  _286
REMARK  122  A    between atoms: _285  and  _288
REMARK  123  A    between atoms: _291  and  _293
REMARK  124  A    between atoms: _293  and  _294
REMARK  125  A    between atoms: _293  and  _296
REMARK  126  A    between atoms: _296  and  _297
REMARK  127  A    between atoms: _297  and  _298
REMARK  128  A    between atoms: _300  and  _302
REMARK  129  A    between atoms: _302  and  _303
REMARK  130  A    between atoms: _302  and  _305
REMARK  131  A    between atoms: _305  and  _306
REMARK  132  A    between atoms: _313  and  _314
REMARK  133  A    between atoms: _319  and  _321
REMARK  134  A    between atoms: _321  and  _322
REMARK  135  A    between atoms: _321  and  _324
REMARK  136  A    between atoms: _324  and  _325
REMARK  137  A    between atoms: _328  and  _330
REMARK  138  A    between atoms: _330  and  _331
REMARK  139  A    between atoms: _330  and  _333
REMARK  140  A    between atoms: _333  and  _334
REMARK  141  A    between atoms: _339  and  _340
REMARK  142  A    between atoms: _342  and  _344
REMARK  143  A    between atoms: _344  and  _345
REMARK  144  A    between atoms: _344  and  _347
REMARK  145  A    between atoms: _347  and  _348
REMARK  146  A    between atoms: _348  and  _349
REMARK  147  A    between atoms: _349  and  _350
REMARK  148  A    between atoms: _350  and  _351
REMARK                            x       y       z     vdW  Elec       q    Type
REMARK                         _______ _______ _______ _____ _____    ______ ____
ROOT
ATOM      1  O   HOH     1      -0.351 -11.177  -4.464  0.00  0.00    +0.000 OA
ENDROOT
TORSDOF 0
REMARK  Name = ../refined-set-2016/3f1a/3f1a_pocket.pdb
REMARK  148 active torsions:
REMARK  status: ('A' for Active; 'I' for Inactive)
REMARK    1  A    between atoms: _1  and  _3
REMARK    2  A    between atoms: _3  and  _4
REMARK    3  A    between atoms: _3  and  _6
REMARK    4  A    between atoms: _6  and  _7
REMARK    5  A    between atoms: _13  and  _15
REMARK    6  A    between atoms: _15  and  _16
REMARK    7  A    between atoms: _15  and  _18
REMARK    8  A    between atoms: _18  and  _19
REMARK    9  A    between atoms: _22  and  _24
REMARK   10  A    between atoms: _24  and  _25
REMARK   11  A    between atoms: _27  and  _29
REMARK   12  A    between atoms: _29  and  _30
REMARK   13  A    between atoms: _32  and  _34
REMARK   14  A    between atoms: _34  and  _35
REMARK   15  A    between atoms: _34  and  _37
REMARK   16  A    between atoms: _35  and  _36
REMARK   17  A    between atoms: _35  and  _41
REMARK   18  A    between atoms: _36  and  CA_356
REMARK   19  A    between atoms: _37  and  _38
REMARK   20  A    between atoms: _41  and  _43
REMARK   21  A    between atoms: _43  and  _44
REMARK   22  A    between atoms: _43  and  _46
REMARK   23  A    between atoms: _46  and  _47
REMARK   24  A    between atoms: _50  and  _52
REMARK   25  A    between atoms: _52  and  _53
REMARK   26  A    between atoms: _56  and  _58
REMARK   27  A    between atoms: _58  and  _59
REMARK   28  A    between atoms: _58  and  _61
REMARK   29  A    between atoms: _61  and  _62
REMARK   30  A    between atoms: _67  and  _69
REMARK   31  A    between atoms: _69  and  _70
REMARK   32  A    between atoms: _73  and  _75
REMARK   33  A    between atoms: _75  and  _76
REMARK   34  A    between atoms: _75  and  _78
REMARK   35  A    between atoms: _78  and  _79
REMARK   36  A    between atoms: _85  and  _87
REMARK   37  A    between atoms: _87  and  _88
REMARK   38  A    between atoms: _87  and  _90
REMARK   39  A    between atoms: _90  and  _91
REMARK   40  A    between atoms: _96  and  _98
REMARK   41  A    between atoms: _98  and  _99
REMARK   42  A    between atoms: _98  and  _101
REMARK   43  A    between atoms: _101  and  _102
REMARK   44  A    between atoms: _108  and  _110
REMARK   45  A    between atoms: _110  and  _111
REMARK   46  A    between atoms: _110  and  _113
REMARK   47  A    between atoms: _113  and  _114
REMARK   48  A    between atoms: _117  and  _119
REMARK   49  A    between atoms: _119  and  _120
REMARK   50  A    between atoms: _119  and  _122
REMARK   51  A    between atoms: _122  and  _123
REMARK   52  A    between atoms: _123  and  _124
REMARK   53  A    between atoms: _124  and  _126
REMARK   54  A    between atoms: _126  and  CA_356
REMARK   55  A    between atoms: _127  and  _129
REMARK   56  A    between atoms: _129  and  _130
REMARK   57  A    between atoms: _129  and  _132
REMARK   58  A    between atoms: _132  and  _133
REMARK   59  A    between atoms: _143  and  _145
REMARK   60  A    between atoms: _145  and  _146
REMARK   61  A    between atoms: _145  and  _148
REMARK   62  A    between atoms: _148  and  _149
REMARK   63  A    between atoms: _152  and  _154
REMARK   64  A    between atoms: _154  and  _155
REMARK   65  A    between atoms: _154  and  _157
REMARK   66  A    between atoms: _157  and  _158
REMARK   67  A    between atoms: _163  and  _165
REMARK   68  A    between atoms: _165  and  _166
REMARK   69  A    between atoms: _165  and  _168
REMARK   70  A    between atoms: _168  and  _169
REMARK   71  A    between atoms: _172  and  _174
REMARK   72  A    between atoms: _174  and  _175
REMARK   73  A    between atoms: _174  and  _177
REMARK   74  A    between atoms: _177  and  _178
REMARK   75  A    between atoms: _181  and  _183
REMARK   76  A    between atoms: _183  and  _184
REMARK   77  A    between atoms: _187  and  _189
REMARK   78  A    between atoms: _189  and  _190
REMARK   79  A    between atoms: _189  and  _192
REMARK   80  A    between atoms: _195  and  _197
REMARK   81  A    between atoms: _197  and  _198
REMARK   82  A    between atoms: _197  and  _200
REMARK   83  A    between atoms: _200  and  _201
REMARK   84  A    between atoms: _205  and  ZN_355
REMARK   85  A    between atoms: _206  and  _208
REMARK   86  A    between atoms: _208  and  _209
REMARK   87  A    between atoms: _208  and  _211
REMARK   88  A    between atoms: _211  and  _212
REMARK   89  A    between atoms: _212  and  _213
REMARK   90  A    between atoms: _216  and  _218
REMARK   91  A    between atoms: _218  and  _219
REMARK   92  A    between atoms: _218  and  _221
REMARK   93  A    between atoms: _221  and  _222
REMARK   94  A    between atoms: _225  and  _227
REMARK   95  A    between atoms: _227  and  _228
REMARK   96  A    between atoms: _227  and  _230
REMARK   97  A    between atoms: _230  and  _231
REMARK   98  A    between atoms: _235  and  ZN_355
REMARK   99  A    between atoms: _236  and  _238
REMARK  100  A    between atoms: _238  and  _239
REMARK  101  A    between atoms: _238  and  _241
REMARK  102  A    between atoms: _241  and  _242
REMARK  103  A    between atoms: _244  and  _246
REMARK  104  A    between atoms: _246  and  _247
REMARK  105  A    between atoms: _246  and  _249
REMARK  106  A    between atoms: _249  and  _250
REMARK  107  A    between atoms: _253  and  _255
REMARK  108  A    between atoms: _255  and  _256
REMARK  109  A    between atoms: _258  and  _260
REMARK  110  A    between atoms: _260  and  _261
REMARK  111  A    between atoms: _260  and  _263
REMARK  112  A    between atoms: _263  and  _264
REMARK  113  A    between atoms: _268  and  ZN_355
REMARK  114  A    between atoms: _269  and  _271
REMARK  115  A    between atoms: _271  and  _272
REMARK  116  A    between atoms: _271  and  _274
REMARK  117  A    between atoms: _274  and  _275
REMARK  118  A    between atoms: _277  and  _279
REMARK  119  A    between atoms: _279  and  _280
REMARK  120  A    between atoms: _283  and  _285
REMARK  121  A    between atoms: _285  and  _286
REMARK  122  A    between atoms: _285  and  _288
REMARK  123  A    between atoms: _291  and  _293
REMARK  124  A    between atoms: _293  and  _294
REMARK  125  A    between atoms: _293  and  _296
REMARK  126  A    between atoms: _296  and  _297
REMARK  127  A    between atoms: _297  and  _298
REMARK  128  A    between atoms: _300  and  _302
REMARK  129  A    between atoms: _302  and  _303
REMARK  130  A    between atoms: _302  and  _305
REMARK  131  A    between atoms: _305  and  _306
REMARK  132  A    between atoms: _313  and  _314
REMARK  133  A    between atoms: _319  and  _321
REMARK  134  A    between atoms: _321  and  _322
REMARK  135  A    between atoms: _321  and  _324
REMARK  136  A    between atoms: _324  and  _325
REMARK  137  A    between atoms: _328  and  _330
REMARK  138  A    between atoms: _330  and  _331
REMARK  139  A    between atoms: _330  and  _333
REMARK  140  A    between atoms: _333  and  _334
REMARK  141  A    between atoms: _339  and  _340
REMARK  142  A    between atoms: _342  and  _344
REMARK  143  A    between atoms: _344  and  _345
REMARK  144  A    between atoms: _344  and  _347
REMARK  145  A    between atoms: _347  and  _348
REMARK  146  A    between atoms: _348  and  _349
REMARK  147  A    between atoms: _349  and  _350
REMARK  148  A    between atoms: _350  and  _351
REMARK                            x       y       z     vdW  Elec       q    Type
REMARK                         _______ _______ _______ _____ _____    ______ ____
ROOT
ATOM      1  O   HOH     1      -3.031  -9.795  -4.064  0.00  0.00    +0.000 OA
ENDROOT
TORSDOF 0
REMARK  Name = ../refined-set-2016/3f1a/3f1a_pocket.pdb
REMARK  148 active torsions:
REMARK  status: ('A' for Active; 'I' for Inactive)
REMARK    1  A    between atoms: _1  and  _3
REMARK    2  A    between atoms: _3  and  _4
REMARK    3  A    between atoms: _3  and  _6
REMARK    4  A    between atoms: _6  and  _7
REMARK    5  A    between atoms: _13  and  _15
REMARK    6  A    between atoms: _15  and  _16
REMARK    7  A    between atoms: _15  and  _18
REMARK    8  A    between atoms: _18  and  _19
REMARK    9  A    between atoms: _22  and  _24
REMARK   10  A    between atoms: _24  and  _25
REMARK   11  A    between atoms: _27  and  _29
REMARK   12  A    between atoms: _29  and  _30
REMARK   13  A    between atoms: _32  and  _34
REMARK   14  A    between atoms: _34  and  _35
REMARK   15  A    between atoms: _34  and  _37
REMARK   16  A    between atoms: _35  and  _36
REMARK   17  A    between atoms: _35  and  _41
REMARK   18  A    between atoms: _36  and  CA_356
REMARK   19  A    between atoms: _37  and  _38
REMARK   20  A    between atoms: _41  and  _43
REMARK   21  A    between atoms: _43  and  _44
REMARK   22  A    between atoms: _43  and  _46
REMARK   23  A    between atoms: _46  and  _47
REMARK   24  A    between atoms: _50  and  _52
REMARK   25  A    between atoms: _52  and  _53
REMARK   26  A    between atoms: _56  and  _58
REMARK   27  A    between atoms: _58  and  _59
REMARK   28  A    between atoms: _58  and  _61
REMARK   29  A    between atoms: _61  and  _62
REMARK   30  A    between atoms: _67  and  _69
REMARK   31  A    between atoms: _69  and  _70
REMARK   32  A    between atoms: _73  and  _75
REMARK   33  A    between atoms: _75  and  _76
REMARK   34  A    between atoms: _75  and  _78
REMARK   35  A    between atoms: _78  and  _79
REMARK   36  A    between atoms: _85  and  _87
REMARK   37  A    between atoms: _87  and  _88
REMARK   38  A    between atoms: _87  and  _90
REMARK   39  A    between atoms: _90  and  _91
REMARK   40  A    between atoms: _96  and  _98
REMARK   41  A    between atoms: _98  and  _99
REMARK   42  A    between atoms: _98  and  _101
REMARK   43  A    between atoms: _101  and  _102
REMARK   44  A    between atoms: _108  and  _110
REMARK   45  A    between atoms: _110  and  _111
REMARK   46  A    between atoms: _110  and  _113
REMARK   47  A    between atoms: _113  and  _114
REMARK   48  A    between atoms: _117  and  _119
REMARK   49  A    between atoms: _119  and  _120
REMARK   50  A    between atoms: _119  and  _122
REMARK   51  A    between atoms: _122  and  _123
REMARK   52  A    between atoms: _123  and  _124
REMARK   53  A    between atoms: _124  and  _126
REMARK   54  A    between atoms: _126  and  CA_356
REMARK   55  A    between atoms: _127  and  _129
REMARK   56  A    between atoms: _129  and  _130
REMARK   57  A    between atoms: _129  and  _132
REMARK   58  A    between atoms: _132  and  _133
REMARK   59  A    between atoms: _143  and  _145
REMARK   60  A    between atoms: _145  and  _146
REMARK   61  A    between atoms: _145  and  _148
REMARK   62  A    between atoms: _148  and  _149
REMARK   63  A    between atoms: _152  and  _154
REMARK   64  A    between atoms: _154  and  _155
REMARK   65  A    between atoms: _154  and  _157
REMARK   66  A    between atoms: _157  and  _158
REMARK   67  A    between atoms: _163  and  _165
REMARK   68  A    between atoms: _165  and  _166
REMARK   69  A    between atoms: _165  and  _168
REMARK   70  A    between atoms: _168  and  _169
REMARK   71  A    between atoms: _172  and  _174
REMARK   72  A    between atoms: _174  and  _175
REMARK   73  A    between atoms: _174  and  _177
REMARK   74  A    between atoms: _177  and  _178
REMARK   75  A    between atoms: _181  and  _183
REMARK   76  A    between atoms: _183  and  _184
REMARK   77  A    between atoms: _187  and  _189
REMARK   78  A    between atoms: _189  and  _190
REMARK   79  A    between atoms: _189  and  _192
REMARK   80  A    between atoms: _195  and  _197
REMARK   81  A    between atoms: _197  and  _198
REMARK   82  A    between atoms: _197  and  _200
REMARK   83  A    between atoms: _200  and  _201
REMARK   84  A    between atoms: _205  and  ZN_355
REMARK   85  A    between atoms: _206  and  _208
REMARK   86  A    between atoms: _208  and  _209
REMARK   87  A    between atoms: _208  and  _211
REMARK   88  A    between atoms: _211  and  _212
REMARK   89  A    between atoms: _212  and  _213
REMARK   90  A    between atoms: _216  and  _218
REMARK   91  A    between atoms: _218  and  _219
REMARK   92  A    between atoms: _218  and  _221
REMARK   93  A    between atoms: _221  and  _222
REMARK   94  A    between atoms: _225  and  _227
REMARK   95  A    between atoms: _227  and  _228
REMARK   96  A    between atoms: _227  and  _230
REMARK   97  A    between atoms: _230  and  _231
REMARK   98  A    between atoms: _235  and  ZN_355
REMARK   99  A    between atoms: _236  and  _238
REMARK  100  A    between atoms: _238  and  _239
REMARK  101  A    between atoms: _238  and  _241
REMARK  102  A    between atoms: _241  and  _242
REMARK  103  A    between atoms: _244  and  _246
REMARK  104  A    between atoms: _246  and  _247
REMARK  105  A    between atoms: _246  and  _249
REMARK  106  A    between atoms: _249  and  _250
REMARK  107  A    between atoms: _253  and  _255
REMARK  108  A    between atoms: _255  and  _256
REMARK  109  A    between atoms: _258  and  _260
REMARK  110  A    between atoms: _260  and  _261
REMARK  111  A    between atoms: _260  and  _263
REMARK  112  A    between atoms: _263  and  _264
REMARK  113  A    between atoms: _268  and  ZN_355
REMARK  114  A    between atoms: _269  and  _271
REMARK  115  A    between atoms: _271  and  _272
REMARK  116  A    between atoms: _271  and  _274
REMARK  117  A    between atoms: _274  and  _275
REMARK  118  A    between atoms: _277  and  _279
REMARK  119  A    between atoms: _279  and  _280
REMARK  120  A    between atoms: _283  and  _285
REMARK  121  A    between atoms: _285  and  _286
REMARK  122  A    between atoms: _285  and  _288
REMARK  123  A    between atoms: _291  and  _293
REMARK  124  A    between atoms: _293  and  _294
REMARK  125  A    between atoms: _293  and  _296
REMARK  126  A    between atoms: _296  and  _297
REMARK  127  A    between atoms: _297  and  _298
REMARK  128  A    between atoms: _300  and  _302
REMARK  129  A    between atoms: _302  and  _303
REMARK  130  A    between atoms: _302  and  _305
REMARK  131  A    between atoms: _305  and  _306
REMARK  132  A    between atoms: _313  and  _314
REMARK  133  A    between atoms: _319  and  _321
REMARK  134  A    between atoms: _321  and  _322
REMARK  135  A    between atoms: _321  and  _324
REMARK  136  A    between atoms: _324  and  _325
REMARK  137  A    between atoms: _328  and  _330
REMARK  138  A    between atoms: _330  and  _331
REMARK  139  A    between atoms: _330  and  _333
REMARK  140  A    between atoms: _333  and  _334
REMARK  141  A    between atoms: _339  and  _340
REMARK  142  A    between atoms: _342  and  _344
REMARK  143  A    between atoms: _344  and  _345
REMARK  144  A    between atoms: _344  and  _347
REMARK  145  A    between atoms: _347  and  _348
REMARK  146  A    between atoms: _348  and  _349
REMARK  147  A    between atoms: _349  and  _350
REMARK  148  A    between atoms: _350  and  _351
REMARK                            x       y       z     vdW  Elec       q    Type
REMARK                         _______ _______ _______ _____ _____    ______ ____
ROOT
ATOM      1  O   HOH     1      -0.892 -12.921  -6.569  0.00  0.00    +0.000 OA
ENDROOT
TORSDOF 0
REMARK  Name = ../refined-set-2016/3f1a/3f1a_pocket.pdb
REMARK  148 active torsions:
REMARK  status: ('A' for Active; 'I' for Inactive)
REMARK    1  A    between atoms: _1  and  _3
REMARK    2  A    between atoms: _3  and  _4
REMARK    3  A    between atoms: _3  and  _6
REMARK    4  A    between atoms: _6  and  _7
REMARK    5  A    between atoms: _13  and  _15
REMARK    6  A    between atoms: _15  and  _16
REMARK    7  A    between atoms: _15  and  _18
REMARK    8  A    between atoms: _18  and  _19
REMARK    9  A    between atoms: _22  and  _24
REMARK   10  A    between atoms: _24  and  _25
REMARK   11  A    between atoms: _27  and  _29
REMARK   12  A    between atoms: _29  and  _30
REMARK   13  A    between atoms: _32  and  _34
REMARK   14  A    between atoms: _34  and  _35
REMARK   15  A    between atoms: _34  and  _37
REMARK   16  A    between atoms: _35  and  _36
REMARK   17  A    between atoms: _35  and  _41
REMARK   18  A    between atoms: _36  and  CA_356
REMARK   19  A    between atoms: _37  and  _38
REMARK   20  A    between atoms: _41  and  _43
REMARK   21  A    between atoms: _43  and  _44
REMARK   22  A    between atoms: _43  and  _46
REMARK   23  A    between atoms: _46  and  _47
REMARK   24  A    between atoms: _50  and  _52
REMARK   25  A    between atoms: _52  and  _53
REMARK   26  A    between atoms: _56  and  _58
REMARK   27  A    between atoms: _58  and  _59
REMARK   28  A    between atoms: _58  and  _61
REMARK   29  A    between atoms: _61  and  _62
REMARK   30  A    between atoms: _67  and  _69
REMARK   31  A    between atoms: _69  and  _70
REMARK   32  A    between atoms: _73  and  _75
REMARK   33  A    between atoms: _75  and  _76
REMARK   34  A    between atoms: _75  and  _78
REMARK   35  A    between atoms: _78  and  _79
REMARK   36  A    between atoms: _85  and  _87
REMARK   37  A    between atoms: _87  and  _88
REMARK   38  A    between atoms: _87  and  _90
REMARK   39  A    between atoms: _90  and  _91
REMARK   40  A    between atoms: _96  and  _98
REMARK   41  A    between atoms: _98  and  _99
REMARK   42  A    between atoms: _98  and  _101
REMARK   43  A    between atoms: _101  and  _102
REMARK   44  A    between atoms: _108  and  _110
REMARK   45  A    between atoms: _110  and  _111
REMARK   46  A    between atoms: _110  and  _113
REMARK   47  A    between atoms: _113  and  _114
REMARK   48  A    between atoms: _117  and  _119
REMARK   49  A    between atoms: _119  and  _120
REMARK   50  A    between atoms: _119  and  _122
REMARK   51  A    between atoms: _122  and  _123
REMARK   52  A    between atoms: _123  and  _124
REMARK   53  A    between atoms: _124  and  _126
REMARK   54  A    between atoms: _126  and  CA_356
REMARK   55  A    between atoms: _127  and  _129
REMARK   56  A    between atoms: _129  and  _130
REMARK   57  A    between atoms: _129  and  _132
REMARK   58  A    between atoms: _132  and  _133
REMARK   59  A    between atoms: _143  and  _145
REMARK   60  A    between atoms: _145  and  _146
REMARK   61  A    between atoms: _145  and  _148
REMARK   62  A    between atoms: _148  and  _149
REMARK   63  A    between atoms: _152  and  _154
REMARK   64  A    between atoms: _154  and  _155
REMARK   65  A    between atoms: _154  and  _157
REMARK   66  A    between atoms: _157  and  _158
REMARK   67  A    between atoms: _163  and  _165
REMARK   68  A    between atoms: _165  and  _166
REMARK   69  A    between atoms: _165  and  _168
REMARK   70  A    between atoms: _168  and  _169
REMARK   71  A    between atoms: _172  and  _174
REMARK   72  A    between atoms: _174  and  _175
REMARK   73  A    between atoms: _174  and  _177
REMARK   74  A    between atoms: _177  and  _178
REMARK   75  A    between atoms: _181  and  _183
REMARK   76  A    between atoms: _183  and  _184
REMARK   77  A    between atoms: _187  and  _189
REMARK   78  A    between atoms: _189  and  _190
REMARK   79  A    between atoms: _189  and  _192
REMARK   80  A    between atoms: _195  and  _197
REMARK   81  A    between atoms: _197  and  _198
REMARK   82  A    between atoms: _197  and  _200
REMARK   83  A    between atoms: _200  and  _201
REMARK   84  A    between atoms: _205  and  ZN_355
REMARK   85  A    between atoms: _206  and  _208
REMARK   86  A    between atoms: _208  and  _209
REMARK   87  A    between atoms: _208  and  _211
REMARK   88  A    between atoms: _211  and  _212
REMARK   89  A    between atoms: _212  and  _213
REMARK   90  A    between atoms: _216  and  _218
REMARK   91  A    between atoms: _218  and  _219
REMARK   92  A    between atoms: _218  and  _221
REMARK   93  A    between atoms: _221  and  _222
REMARK   94  A    between atoms: _225  and  _227
REMARK   95  A    between atoms: _227  and  _228
REMARK   96  A    between atoms: _227  and  _230
REMARK   97  A    between atoms: _230  and  _231
REMARK   98  A    between atoms: _235  and  ZN_355
REMARK   99  A    between atoms: _236  and  _238
REMARK  100  A    between atoms: _238  and  _239
REMARK  101  A    between atoms: _238  and  _241
REMARK  102  A    between atoms: _241  and  _242
REMARK  103  A    between atoms: _244  and  _246
REMARK  104  A    between atoms: _246  and  _247
REMARK  105  A    between atoms: _246  and  _249
REMARK  106  A    between atoms: _249  and  _250
REMARK  107  A    between atoms: _253  and  _255
REMARK  108  A    between atoms: _255  and  _256
REMARK  109  A    between atoms: _258  and  _260
REMARK  110  A    between atoms: _260  and  _261
REMARK  111  A    between atoms: _260  and  _263
REMARK  112  A    between atoms: _263  and  _264
REMARK  113  A    between atoms: _268  and  ZN_355
REMARK  114  A    between atoms: _269  and  _271
REMARK  115  A    between atoms: _271  and  _272
REMARK  116  A    between atoms: _271  and  _274
REMARK  117  A    between atoms: _274  and  _275
REMARK  118  A    between atoms: _277  and  _279
REMARK  119  A    between atoms: _279  and  _280
REMARK  120  A    between atoms: _283  and  _285
REMARK  121  A    between atoms: _285  and  _286
REMARK  122  A    between atoms: _285  and  _288
REMARK  123  A    between atoms: _291  and  _293
REMARK  124  A    between atoms: _293  and  _294
REMARK  125  A    between atoms: _293  and  _296
REMARK  126  A    between atoms: _296  and  _297
REMARK  127  A    between atoms: _297  and  _298
REMARK  128  A    between atoms: _300  and  _302
REMARK  129  A    between atoms: _302  and  _303
REMARK  130  A    between atoms: _302  and  _305
REMARK  131  A    between atoms: _305  and  _306
REMARK  132  A    between atoms: _313  and  _314
REMARK  133  A    between atoms: _319  and  _321
REMARK  134  A    between atoms: _321  and  _322
REMARK  135  A    between atoms: _321  and  _324
REMARK  136  A    between atoms: _324  and  _325
REMARK  137  A    between atoms: _328  and  _330
REMARK  138  A    between atoms: _330  and  _331
REMARK  139  A    between atoms: _330  and  _333
REMARK  140  A    between atoms: _333  and  _334
REMARK  141  A    between atoms: _339  and  _340
REMARK  142  A    between atoms: _342  and  _344
REMARK  143  A    between atoms: _344  and  _345
REMARK  144  A    between atoms: _344  and  _347
REMARK  145  A    between atoms: _347  and  _348
REMARK  146  A    between atoms: _348  and  _349
REMARK  147  A    between atoms: _349  and  _350
REMARK  148  A    between atoms: _350  and  _351
REMARK                            x       y       z     vdW  Elec       q    Type
REMARK                         _______ _______ _______ _____ _____    ______ ____
ROOT
ATOM      1  O   HOH     1      -8.924  -7.180  -7.046  0.00  0.00    +0.000 OA
ENDROOT
TORSDOF 0
REMARK  Name = ../refined-set-2016/3f1a/3f1a_pocket.pdb
REMARK  148 active torsions:
REMARK  status: ('A' for Active; 'I' for Inactive)
REMARK    1  A    between atoms: _1  and  _3
REMARK    2  A    between atoms: _3  and  _4
REMARK    3  A    between atoms: _3  and  _6
REMARK    4  A    between atoms: _6  and  _7
REMARK    5  A    between atoms: _13  and  _15
REMARK    6  A    between atoms: _15  and  _16
REMARK    7  A    between atoms: _15  and  _18
REMARK    8  A    between atoms: _18  and  _19
REMARK    9  A    between atoms: _22  and  _24
REMARK   10  A    between atoms: _24  and  _25
REMARK   11  A    between atoms: _27  and  _29
REMARK   12  A    between atoms: _29  and  _30
REMARK   13  A    between atoms: _32  and  _34
REMARK   14  A    between atoms: _34  and  _35
REMARK   15  A    between atoms: _34  and  _37
REMARK   16  A    between atoms: _35  and  _36
REMARK   17  A    between atoms: _35  and  _41
REMARK   18  A    between atoms: _36  and  CA_356
REMARK   19  A    between atoms: _37  and  _38
REMARK   20  A    between atoms: _41  and  _43
REMARK   21  A    between atoms: _43  and  _44
REMARK   22  A    between atoms: _43  and  _46
REMARK   23  A    between atoms: _46  and  _47
REMARK   24  A    between atoms: _50  and  _52
REMARK   25  A    between atoms: _52  and  _53
REMARK   26  A    between atoms: _56  and  _58
REMARK   27  A    between atoms: _58  and  _59
REMARK   28  A    between atoms: _58  and  _61
REMARK   29  A    between atoms: _61  and  _62
REMARK   30  A    between atoms: _67  and  _69
REMARK   31  A    between atoms: _69  and  _70
REMARK   32  A    between atoms: _73  and  _75
REMARK   33  A    between atoms: _75  and  _76
REMARK   34  A    between atoms: _75  and  _78
REMARK   35  A    between atoms: _78  and  _79
REMARK   36  A    between atoms: _85  and  _87
REMARK   37  A    between atoms: _87  and  _88
REMARK   38  A    between atoms: _87  and  _90
REMARK   39  A    between atoms: _90  and  _91
REMARK   40  A    between atoms: _96  and  _98
REMARK   41  A    between atoms: _98  and  _99
REMARK   42  A    between atoms: _98  and  _101
REMARK   43  A    between atoms: _101  and  _102
REMARK   44  A    between atoms: _108  and  _110
REMARK   45  A    between atoms: _110  and  _111
REMARK   46  A    between atoms: _110  and  _113
REMARK   47  A    between atoms: _113  and  _114
REMARK   48  A    between atoms: _117  and  _119
REMARK   49  A    between atoms: _119  and  _120
REMARK   50  A    between atoms: _119  and  _122
REMARK   51  A    between atoms: _122  and  _123
REMARK   52  A    between atoms: _123  and  _124
REMARK   53  A    between atoms: _124  and  _126
REMARK   54  A    between atoms: _126  and  CA_356
REMARK   55  A    between atoms: _127  and  _129
REMARK   56  A    between atoms: _129  and  _130
REMARK   57  A    between atoms: _129  and  _132
REMARK   58  A    between atoms: _132  and  _133
REMARK   59  A    between atoms: _143  and  _145
REMARK   60  A    between atoms: _145  and  _146
REMARK   61  A    between atoms: _145  and  _148
REMARK   62  A    between atoms: _148  and  _149
REMARK   63  A    between atoms: _152  and  _154
REMARK   64  A    between atoms: _154  and  _155
REMARK   65  A    between atoms: _154  and  _157
REMARK   66  A    between atoms: _157  and  _158
REMARK   67  A    between atoms: _163  and  _165
REMARK   68  A    between atoms: _165  and  _166
REMARK   69  A    between atoms: _165  and  _168
REMARK   70  A    between atoms: _168  and  _169
REMARK   71  A    between atoms: _172  and  _174
REMARK   72  A    between atoms: _174  and  _175
REMARK   73  A    between atoms: _174  and  _177
REMARK   74  A    between atoms: _177  and  _178
REMARK   75  A    between atoms: _181  and  _183
REMARK   76  A    between atoms: _183  and  _184
REMARK   77  A    between atoms: _187  and  _189
REMARK   78  A    between atoms: _189  and  _190
REMARK   79  A    between atoms: _189  and  _192
REMARK   80  A    between atoms: _195  and  _197
REMARK   81  A    between atoms: _197  and  _198
REMARK   82  A    between atoms: _197  and  _200
REMARK   83  A    between atoms: _200  and  _201
REMARK   84  A    between atoms: _205  and  ZN_355
REMARK   85  A    between atoms: _206  and  _208
REMARK   86  A    between atoms: _208  and  _209
REMARK   87  A    between atoms: _208  and  _211
REMARK   88  A    between atoms: _211  and  _212
REMARK   89  A    between atoms: _212  and  _213
REMARK   90  A    between atoms: _216  and  _218
REMARK   91  A    between atoms: _218  and  _219
REMARK   92  A    between atoms: _218  and  _221
REMARK   93  A    between atoms: _221  and  _222
REMARK   94  A    between atoms: _225  and  _227
REMARK   95  A    between atoms: _227  and  _228
REMARK   96  A    between atoms: _227  and  _230
REMARK   97  A    between atoms: _230  and  _231
REMARK   98  A    between atoms: _235  and  ZN_355
REMARK   99  A    between atoms: _236  and  _238
REMARK  100  A    between atoms: _238  and  _239
REMARK  101  A    between atoms: _238  and  _241
REMARK  102  A    between atoms: _241  and  _242
REMARK  103  A    between atoms: _244  and  _246
REMARK  104  A    between atoms: _246  and  _247
REMARK  105  A    between atoms: _246  and  _249
REMARK  106  A    between atoms: _249  and  _250
REMARK  107  A    between atoms: _253  and  _255
REMARK  108  A    between atoms: _255  and  _256
REMARK  109  A    between atoms: _258  and  _260
REMARK  110  A    between atoms: _260  and  _261
REMARK  111  A    between atoms: _260  and  _263
REMARK  112  A    between atoms: _263  and  _264
REMARK  113  A    between atoms: _268  and  ZN_355
REMARK  114  A    between atoms: _269  and  _271
REMARK  115  A    between atoms: _271  and  _272
REMARK  116  A    between atoms: _271  and  _274
REMARK  117  A    between atoms: _274  and  _275
REMARK  118  A    between atoms: _277  and  _279
REMARK  119  A    between atoms: _279  and  _280
REMARK  120  A    between atoms: _283  and  _285
REMARK  121  A    between atoms: _285  and  _286
REMARK  122  A    between atoms: _285  and  _288
REMARK  123  A    between atoms: _291  and  _293
REMARK  124  A    between atoms: _293  and  _294
REMARK  125  A    between atoms: _293  and  _296
REMARK  126  A    between atoms: _296  and  _297
REMARK  127  A    between atoms: _297  and  _298
REMARK  128  A    between atoms: _300  and  _302
REMARK  129  A    between atoms: _302  and  _303
REMARK  130  A    between atoms: _302  and  _305
REMARK  131  A    between atoms: _305  and  _306
REMARK  132  A    between atoms: _313  and  _314
REMARK  133  A    between atoms: _319  and  _321
REMARK  134  A    between atoms: _321  and  _322
REMARK  135  A    between atoms: _321  and  _324
REMARK  136  A    between atoms: _324  and  _325
REMARK  137  A    between atoms: _328  and  _330
REMARK  138  A    between atoms: _330  and  _331
REMARK  139  A    between atoms: _330  and  _333
REMARK  140  A    between atoms: _333  and  _334
REMARK  141  A    between atoms: _339  and  _340
REMARK  142  A    between atoms: _342  and  _344
REMARK  143  A    between atoms: _344  and  _345
REMARK  144  A    between atoms: _344  and  _347
REMARK  145  A    between atoms: _347  and  _348
REMARK  146  A    between atoms: _348  and  _349
REMARK  147  A    between atoms: _349  and  _350
REMARK  148  A    between atoms: _350  and  _351
REMARK                            x       y       z     vdW  Elec       q    Type
REMARK                         _______ _______ _______ _____ _____    ______ ____
ROOT
ATOM      1  O   HOH     1      -7.920  -8.806  -9.126  0.00  0.00    +0.000 OA
ENDROOT
TORSDOF 0
REMARK  Name = ../refined-set-2016/3f1a/3f1a_pocket.pdb
REMARK  148 active torsions:
REMARK  status: ('A' for Active; 'I' for Inactive)
REMARK    1  A    between atoms: _1  and  _3
REMARK    2  A    between atoms: _3  and  _4
REMARK    3  A    between atoms: _3  and  _6
REMARK    4  A    between atoms: _6  and  _7
REMARK    5  A    between atoms: _13  and  _15
REMARK    6  A    between atoms: _15  and  _16
REMARK    7  A    between atoms: _15  and  _18
REMARK    8  A    between atoms: _18  and  _19
REMARK    9  A    between atoms: _22  and  _24
REMARK   10  A    between atoms: _24  and  _25
REMARK   11  A    between atoms: _27  and  _29
REMARK   12  A    between atoms: _29  and  _30
REMARK   13  A    between atoms: _32  and  _34
REMARK   14  A    between atoms: _34  and  _35
REMARK   15  A    between atoms: _34  and  _37
REMARK   16  A    between atoms: _35  and  _36
REMARK   17  A    between atoms: _35  and  _41
REMARK   18  A    between atoms: _36  and  CA_356
REMARK   19  A    between atoms: _37  and  _38
REMARK   20  A    between atoms: _41  and  _43
REMARK   21  A    between atoms: _43  and  _44
REMARK   22  A    between atoms: _43  and  _46
REMARK   23  A    between atoms: _46  and  _47
REMARK   24  A    between atoms: _50  and  _52
REMARK   25  A    between atoms: _52  and  _53
REMARK   26  A    between atoms: _56  and  _58
REMARK   27  A    between atoms: _58  and  _59
REMARK   28  A    between atoms: _58  and  _61
REMARK   29  A    between atoms: _61  and  _62
REMARK   30  A    between atoms: _67  and  _69
REMARK   31  A    between atoms: _69  and  _70
REMARK   32  A    between atoms: _73  and  _75
REMARK   33  A    between atoms: _75  and  _76
REMARK   34  A    between atoms: _75  and  _78
REMARK   35  A    between atoms: _78  and  _79
REMARK   36  A    between atoms: _85  and  _87
REMARK   37  A    between atoms: _87  and  _88
REMARK   38  A    between atoms: _87  and  _90
REMARK   39  A    between atoms: _90  and  _91
REMARK   40  A    between atoms: _96  and  _98
REMARK   41  A    between atoms: _98  and  _99
REMARK   42  A    between atoms: _98  and  _101
REMARK   43  A    between atoms: _101  and  _102
REMARK   44  A    between atoms: _108  and  _110
REMARK   45  A    between atoms: _110  and  _111
REMARK   46  A    between atoms: _110  and  _113
REMARK   47  A    between atoms: _113  and  _114
REMARK   48  A    between atoms: _117  and  _119
REMARK   49  A    between atoms: _119  and  _120
REMARK   50  A    between atoms: _119  and  _122
REMARK   51  A    between atoms: _122  and  _123
REMARK   52  A    between atoms: _123  and  _124
REMARK   53  A    between atoms: _124  and  _126
REMARK   54  A    between atoms: _126  and  CA_356
REMARK   55  A    between atoms: _127  and  _129
REMARK   56  A    between atoms: _129  and  _130
REMARK   57  A    between atoms: _129  and  _132
REMARK   58  A    between atoms: _132  and  _133
REMARK   59  A    between atoms: _143  and  _145
REMARK   60  A    between atoms: _145  and  _146
REMARK   61  A    between atoms: _145  and  _148
REMARK   62  A    between atoms: _148  and  _149
REMARK   63  A    between atoms: _152  and  _154
REMARK   64  A    between atoms: _154  and  _155
REMARK   65  A    between atoms: _154  and  _157
REMARK   66  A    between atoms: _157  and  _158
REMARK   67  A    between atoms: _163  and  _165
REMARK   68  A    between atoms: _165  and  _166
REMARK   69  A    between atoms: _165  and  _168
REMARK   70  A    between atoms: _168  and  _169
REMARK   71  A    between atoms: _172  and  _174
REMARK   72  A    between atoms: _174  and  _175
REMARK   73  A    between atoms: _174  and  _177
REMARK   74  A    between atoms: _177  and  _178
REMARK   75  A    between atoms: _181  and  _183
REMARK   76  A    between atoms: _183  and  _184
REMARK   77  A    between atoms: _187  and  _189
REMARK   78  A    between atoms: _189  and  _190
REMARK   79  A    between atoms: _189  and  _192
REMARK   80  A    between atoms: _195  and  _197
REMARK   81  A    between atoms: _197  and  _198
REMARK   82  A    between atoms: _197  and  _200
REMARK   83  A    between atoms: _200  and  _201
REMARK   84  A    between atoms: _205  and  ZN_355
REMARK   85  A    between atoms: _206  and  _208
REMARK   86  A    between atoms: _208  and  _209
REMARK   87  A    between atoms: _208  and  _211
REMARK   88  A    between atoms: _211  and  _212
REMARK   89  A    between atoms: _212  and  _213
REMARK   90  A    between atoms: _216  and  _218
REMARK   91  A    between atoms: _218  and  _219
REMARK   92  A    between atoms: _218  and  _221
REMARK   93  A    between atoms: _221  and  _222
REMARK   94  A    between atoms: _225  and  _227
REMARK   95  A    between atoms: _227  and  _228
REMARK   96  A    between atoms: _227  and  _230
REMARK   97  A    between atoms: _230  and  _231
REMARK   98  A    between atoms: _235  and  ZN_355
REMARK   99  A    between atoms: _236  and  _238
REMARK  100  A    between atoms: _238  and  _239
REMARK  101  A    between atoms: _238  and  _241
REMARK  102  A    between atoms: _241  and  _242
REMARK  103  A    between atoms: _244  and  _246
REMARK  104  A    between atoms: _246  and  _247
REMARK  105  A    between atoms: _246  and  _249
REMARK  106  A    between atoms: _249  and  _250
REMARK  107  A    between atoms: _253  and  _255
REMARK  108  A    between atoms: _255  and  _256
REMARK  109  A    between atoms: _258  and  _260
REMARK  110  A    between atoms: _260  and  _261
REMARK  111  A    between atoms: _260  and  _263
REMARK  112  A    between atoms: _263  and  _264
REMARK  113  A    between atoms: _268  and  ZN_355
REMARK  114  A    between atoms: _269  and  _271
REMARK  115  A    between atoms: _271  and  _272
REMARK  116  A    between atoms: _271  and  _274
REMARK  117  A    between atoms: _274  and  _275
REMARK  118  A    between atoms: _277  and  _279
REMARK  119  A    between atoms: _279  and  _280
REMARK  120  A    between atoms: _283  and  _285
REMARK  121  A    between atoms: _285  and  _286
REMARK  122  A    between atoms: _285  and  _288
REMARK  123  A    between atoms: _291  and  _293
REMARK  124  A    between atoms: _293  and  _294
REMARK  125  A    between atoms: _293  and  _296
REMARK  126  A    between atoms: _296  and  _297
REMARK  127  A    between atoms: _297  and  _298
REMARK  128  A    between atoms: _300  and  _302
REMARK  129  A    between atoms: _302  and  _303
REMARK  130  A    between atoms: _302  and  _305
REMARK  131  A    between atoms: _305  and  _306
REMARK  132  A    between atoms: _313  and  _314
REMARK  133  A    between atoms: _319  and  _321
REMARK  134  A    between atoms: _321  and  _322
REMARK  135  A    between atoms: _321  and  _324
REMARK  136  A    between atoms: _324  and  _325
REMARK  137  A    between atoms: _328  and  _330
REMARK  138  A    between atoms: _330  and  _331
REMARK  139  A    between atoms: _330  and  _333
REMARK  140  A    between atoms: _333  and  _334
REMARK  141  A    between atoms: _339  and  _340
REMARK  142  A    between atoms: _342  and  _344
REMARK  143  A    between atoms: _344  and  _345
REMARK  144  A    between atoms: _344  and  _347
REMARK  145  A    between atoms: _347  and  _348
REMARK  146  A    between atoms: _348  and  _349
REMARK  147  A    between atoms: _349  and  _350
REMARK  148  A    between atoms: _350  and  _351
REMARK                            x       y       z     vdW  Elec       q    Type
REMARK                         _______ _______ _______ _____ _____    ______ ____
ROOT
ATOM      1  O   HOH     1      -2.924   2.656  -3.472  0.00  0.00    +0.000 OA
ENDROOT
TORSDOF 0
REMARK  Name = ../refined-set-2016/3f1a/3f1a_pocket.pdb
REMARK  148 active torsions:
REMARK  status: ('A' for Active; 'I' for Inactive)
REMARK    1  A    between atoms: _1  and  _3
REMARK    2  A    between atoms: _3  and  _4
REMARK    3  A    between atoms: _3  and  _6
REMARK    4  A    between atoms: _6  and  _7
REMARK    5  A    between atoms: _13  and  _15
REMARK    6  A    between atoms: _15  and  _16
REMARK    7  A    between atoms: _15  and  _18
REMARK    8  A    between atoms: _18  and  _19
REMARK    9  A    between atoms: _22  and  _24
REMARK   10  A    between atoms: _24  and  _25
REMARK   11  A    between atoms: _27  and  _29
REMARK   12  A    between atoms: _29  and  _30
REMARK   13  A    between atoms: _32  and  _34
REMARK   14  A    between atoms: _34  and  _35
REMARK   15  A    between atoms: _34  and  _37
REMARK   16  A    between atoms: _35  and  _36
REMARK   17  A    between atoms: _35  and  _41
REMARK   18  A    between atoms: _36  and  CA_356
REMARK   19  A    between atoms: _37  and  _38
REMARK   20  A    between atoms: _41  and  _43
REMARK   21  A    between atoms: _43  and  _44
REMARK   22  A    between atoms: _43  and  _46
REMARK   23  A    between atoms: _46  and  _47
REMARK   24  A    between atoms: _50  and  _52
REMARK   25  A    between atoms: _52  and  _53
REMARK   26  A    between atoms: _56  and  _58
REMARK   27  A    between atoms: _58  and  _59
REMARK   28  A    between atoms: _58  and  _61
REMARK   29  A    between atoms: _61  and  _62
REMARK   30  A    between atoms: _67  and  _69
REMARK   31  A    between atoms: _69  and  _70
REMARK   32  A    between atoms: _73  and  _75
REMARK   33  A    between atoms: _75  and  _76
REMARK   34  A    between atoms: _75  and  _78
REMARK   35  A    between atoms: _78  and  _79
REMARK   36  A    between atoms: _85  and  _87
REMARK   37  A    between atoms: _87  and  _88
REMARK   38  A    between atoms: _87  and  _90
REMARK   39  A    between atoms: _90  and  _91
REMARK   40  A    between atoms: _96  and  _98
REMARK   41  A    between atoms: _98  and  _99
REMARK   42  A    between atoms: _98  and  _101
REMARK   43  A    between atoms: _101  and  _102
REMARK   44  A    between atoms: _108  and  _110
REMARK   45  A    between atoms: _110  and  _111
REMARK   46  A    between atoms: _110  and  _113
REMARK   47  A    between atoms: _113  and  _114
REMARK   48  A    between atoms: _117  and  _119
REMARK   49  A    between atoms: _119  and  _120
REMARK   50  A    between atoms: _119  and  _122
REMARK   51  A    between atoms: _122  and  _123
REMARK   52  A    between atoms: _123  and  _124
REMARK   53  A    between atoms: _124  and  _126
REMARK   54  A    between atoms: _126  and  CA_356
REMARK   55  A    between atoms: _127  and  _129
REMARK   56  A    between atoms: _129  and  _130
REMARK   57  A    between atoms: _129  and  _132
REMARK   58  A    between atoms: _132  and  _133
REMARK   59  A    between atoms: _143  and  _145
REMARK   60  A    between atoms: _145  and  _146
REMARK   61  A    between atoms: _145  and  _148
REMARK   62  A    between atoms: _148  and  _149
REMARK   63  A    between atoms: _152  and  _154
REMARK   64  A    between atoms: _154  and  _155
REMARK   65  A    between atoms: _154  and  _157
REMARK   66  A    between atoms: _157  and  _158
REMARK   67  A    between atoms: _163  and  _165
REMARK   68  A    between atoms: _165  and  _166
REMARK   69  A    between atoms: _165  and  _168
REMARK   70  A    between atoms: _168  and  _169
REMARK   71  A    between atoms: _172  and  _174
REMARK   72  A    between atoms: _174  and  _175
REMARK   73  A    between atoms: _174  and  _177
REMARK   74  A    between atoms: _177  and  _178
REMARK   75  A    between atoms: _181  and  _183
REMARK   76  A    between atoms: _183  and  _184
REMARK   77  A    between atoms: _187  and  _189
REMARK   78  A    between atoms: _189  and  _190
REMARK   79  A    between atoms: _189  and  _192
REMARK   80  A    between atoms: _195  and  _197
REMARK   81  A    between atoms: _197  and  _198
REMARK   82  A    between atoms: _197  and  _200
REMARK   83  A    between atoms: _200  and  _201
REMARK   84  A    between atoms: _205  and  ZN_355
REMARK   85  A    between atoms: _206  and  _208
REMARK   86  A    between atoms: _208  and  _209
REMARK   87  A    between atoms: _208  and  _211
REMARK   88  A    between atoms: _211  and  _212
REMARK   89  A    between atoms: _212  and  _213
REMARK   90  A    between atoms: _216  and  _218
REMARK   91  A    between atoms: _218  and  _219
REMARK   92  A    between atoms: _218  and  _221
REMARK   93  A    between atoms: _221  and  _222
REMARK   94  A    between atoms: _225  and  _227
REMARK   95  A    between atoms: _227  and  _228
REMARK   96  A    between atoms: _227  and  _230
REMARK   97  A    between atoms: _230  and  _231
REMARK   98  A    between atoms: _235  and  ZN_355
REMARK   99  A    between atoms: _236  and  _238
REMARK  100  A    between atoms: _238  and  _239
REMARK  101  A    between atoms: _238  and  _241
REMARK  102  A    between atoms: _241  and  _242
REMARK  103  A    between atoms: _244  and  _246
REMARK  104  A    between atoms: _246  and  _247
REMARK  105  A    between atoms: _246  and  _249
REMARK  106  A    between atoms: _249  and  _250
REMARK  107  A    between atoms: _253  and  _255
REMARK  108  A    between atoms: _255  and  _256
REMARK  109  A    between atoms: _258  and  _260
REMARK  110  A    between atoms: _260  and  _261
REMARK  111  A    between atoms: _260  and  _263
REMARK  112  A    between atoms: _263  and  _264
REMARK  113  A    between atoms: _268  and  ZN_355
REMARK  114  A    between atoms: _269  and  _271
REMARK  115  A    between atoms: _271  and  _272
REMARK  116  A    between atoms: _271  and  _274
REMARK  117  A    between atoms: _274  and  _275
REMARK  118  A    between atoms: _277  and  _279
REMARK  119  A    between atoms: _279  and  _280
REMARK  120  A    between atoms: _283  and  _285
REMARK  121  A    between atoms: _285  and  _286
REMARK  122  A    between atoms: _285  and  _288
REMARK  123  A    between atoms: _291  and  _293
REMARK  124  A    between atoms: _293  and  _294
REMARK  125  A    between atoms: _293  and  _296
REMARK  126  A    between atoms: _296  and  _297
REMARK  127  A    between atoms: _297  and  _298
REMARK  128  A    between atoms: _300  and  _302
REMARK  129  A    between atoms: _302  and  _303
REMARK  130  A    between atoms: _302  and  _305
REMARK  131  A    between atoms: _305  and  _306
REMARK  132  A    between atoms: _313  and  _314
REMARK  133  A    between atoms: _319  and  _321
REMARK  134  A    between atoms: _321  and  _322
REMARK  135  A    between atoms: _321  and  _324
REMARK  136  A    between atoms: _324  and  _325
REMARK  137  A    between atoms: _328  and  _330
REMARK  138  A    between atoms: _330  and  _331
REMARK  139  A    between atoms: _330  and  _333
REMARK  140  A    between atoms: _333  and  _334
REMARK  141  A    between atoms: _339  and  _340
REMARK  142  A    between atoms: _342  and  _344
REMARK  143  A    between atoms: _344  and  _345
REMARK  144  A    between atoms: _344  and  _347
REMARK  145  A    between atoms: _347  and  _348
REMARK  146  A    between atoms: _348  and  _349
REMARK  147  A    between atoms: _349  and  _350
REMARK  148  A    between atoms: _350  and  _351
REMARK                            x       y       z     vdW  Elec       q    Type
REMARK                         _______ _______ _______ _____ _____    ______ ____
ROOT
ATOM      1  O   HOH     1     -10.053 -11.389  -5.091  0.00  0.00    +0.000 OA
ENDROOT
TORSDOF 0
REMARK  Name = ../refined-set-2016/3f1a/3f1a_pocket.pdb
REMARK  148 active torsions:
REMARK  status: ('A' for Active; 'I' for Inactive)
REMARK    1  A    between atoms: _1  and  _3
REMARK    2  A    between atoms: _3  and  _4
REMARK    3  A    between atoms: _3  and  _6
REMARK    4  A    between atoms: _6  and  _7
REMARK    5  A    between atoms: _13  and  _15
REMARK    6  A    between atoms: _15  and  _16
REMARK    7  A    between atoms: _15  and  _18
REMARK    8  A    between atoms: _18  and  _19
REMARK    9  A    between atoms: _22  and  _24
REMARK   10  A    between atoms: _24  and  _25
REMARK   11  A    between atoms: _27  and  _29
REMARK   12  A    between atoms: _29  and  _30
REMARK   13  A    between atoms: _32  and  _34
REMARK   14  A    between atoms: _34  and  _35
REMARK   15  A    between atoms: _34  and  _37
REMARK   16  A    between atoms: _35  and  _36
REMARK   17  A    between atoms: _35  and  _41
REMARK   18  A    between atoms: _36  and  CA_356
REMARK   19  A    between atoms: _37  and  _38
REMARK   20  A    between atoms: _41  and  _43
REMARK   21  A    between atoms: _43  and  _44
REMARK   22  A    between atoms: _43  and  _46
REMARK   23  A    between atoms: _46  and  _47
REMARK   24  A    between atoms: _50  and  _52
REMARK   25  A    between atoms: _52  and  _53
REMARK   26  A    between atoms: _56  and  _58
REMARK   27  A    between atoms: _58  and  _59
REMARK   28  A    between atoms: _58  and  _61
REMARK   29  A    between atoms: _61  and  _62
REMARK   30  A    between atoms: _67  and  _69
REMARK   31  A    between atoms: _69  and  _70
REMARK   32  A    between atoms: _73  and  _75
REMARK   33  A    between atoms: _75  and  _76
REMARK   34  A    between atoms: _75  and  _78
REMARK   35  A    between atoms: _78  and  _79
REMARK   36  A    between atoms: _85  and  _87
REMARK   37  A    between atoms: _87  and  _88
REMARK   38  A    between atoms: _87  and  _90
REMARK   39  A    between atoms: _90  and  _91
REMARK   40  A    between atoms: _96  and  _98
REMARK   41  A    between atoms: _98  and  _99
REMARK   42  A    between atoms: _98  and  _101
REMARK   43  A    between atoms: _101  and  _102
REMARK   44  A    between atoms: _108  and  _110
REMARK   45  A    between atoms: _110  and  _111
REMARK   46  A    between atoms: _110  and  _113
REMARK   47  A    between atoms: _113  and  _114
REMARK   48  A    between atoms: _117  and  _119
REMARK   49  A    between atoms: _119  and  _120
REMARK   50  A    between atoms: _119  and  _122
REMARK   51  A    between atoms: _122  and  _123
REMARK   52  A    between atoms: _123  and  _124
REMARK   53  A    between atoms: _124  and  _126
REMARK   54  A    between atoms: _126  and  CA_356
REMARK   55  A    between atoms: _127  and  _129
REMARK   56  A    between atoms: _129  and  _130
REMARK   57  A    between atoms: _129  and  _132
REMARK   58  A    between atoms: _132  and  _133
REMARK   59  A    between atoms: _143  and  _145
REMARK   60  A    between atoms: _145  and  _146
REMARK   61  A    between atoms: _145  and  _148
REMARK   62  A    between atoms: _148  and  _149
REMARK   63  A    between atoms: _152  and  _154
REMARK   64  A    between atoms: _154  and  _155
REMARK   65  A    between atoms: _154  and  _157
REMARK   66  A    between atoms: _157  and  _158
REMARK   67  A    between atoms: _163  and  _165
REMARK   68  A    between atoms: _165  and  _166
REMARK   69  A    between atoms: _165  and  _168
REMARK   70  A    between atoms: _168  and  _169
REMARK   71  A    between atoms: _172  and  _174
REMARK   72  A    between atoms: _174  and  _175
REMARK   73  A    between atoms: _174  and  _177
REMARK   74  A    between atoms: _177  and  _178
REMARK   75  A    between atoms: _181  and  _183
REMARK   76  A    between atoms: _183  and  _184
REMARK   77  A    between atoms: _187  and  _189
REMARK   78  A    between atoms: _189  and  _190
REMARK   79  A    between atoms: _189  and  _192
REMARK   80  A    between atoms: _195  and  _197
REMARK   81  A    between atoms: _197  and  _198
REMARK   82  A    between atoms: _197  and  _200
REMARK   83  A    between atoms: _200  and  _201
REMARK   84  A    between atoms: _205  and  ZN_355
REMARK   85  A    between atoms: _206  and  _208
REMARK   86  A    between atoms: _208  and  _209
REMARK   87  A    between atoms: _208  and  _211
REMARK   88  A    between atoms: _211  and  _212
REMARK   89  A    between atoms: _212  and  _213
REMARK   90  A    between atoms: _216  and  _218
REMARK   91  A    between atoms: _218  and  _219
REMARK   92  A    between atoms: _218  and  _221
REMARK   93  A    between atoms: _221  and  _222
REMARK   94  A    between atoms: _225  and  _227
REMARK   95  A    between atoms: _227  and  _228
REMARK   96  A    between atoms: _227  and  _230
REMARK   97  A    between atoms: _230  and  _231
REMARK   98  A    between atoms: _235  and  ZN_355
REMARK   99  A    between atoms: _236  and  _238
REMARK  100  A    between atoms: _238  and  _239
REMARK  101  A    between atoms: _238  and  _241
REMARK  102  A    between atoms: _241  and  _242
REMARK  103  A    between atoms: _244  and  _246
REMARK  104  A    between atoms: _246  and  _247
REMARK  105  A    between atoms: _246  and  _249
REMARK  106  A    between atoms: _249  and  _250
REMARK  107  A    between atoms: _253  and  _255
REMARK  108  A    between atoms: _255  and  _256
REMARK  109  A    between atoms: _258  and  _260
REMARK  110  A    between atoms: _260  and  _261
REMARK  111  A    between atoms: _260  and  _263
REMARK  112  A    between atoms: _263  and  _264
REMARK  113  A    between atoms: _268  and  ZN_355
REMARK  114  A    between atoms: _269  and  _271
REMARK  115  A    between atoms: _271  and  _272
REMARK  116  A    between atoms: _271  and  _274
REMARK  117  A    between atoms: _274  and  _275
REMARK  118  A    between atoms: _277  and  _279
REMARK  119  A    between atoms: _279  and  _280
REMARK  120  A    between atoms: _283  and  _285
REMARK  121  A    between atoms: _285  and  _286
REMARK  122  A    between atoms: _285  and  _288
REMARK  123  A    between atoms: _291  and  _293
REMARK  124  A    between atoms: _293  and  _294
REMARK  125  A    between atoms: _293  and  _296
REMARK  126  A    between atoms: _296  and  _297
REMARK  127  A    between atoms: _297  and  _298
REMARK  128  A    between atoms: _300  and  _302
REMARK  129  A    between atoms: _302  and  _303
REMARK  130  A    between atoms: _302  and  _305
REMARK  131  A    between atoms: _305  and  _306
REMARK  132  A    between atoms: _313  and  _314
REMARK  133  A    between atoms: _319  and  _321
REMARK  134  A    between atoms: _321  and  _322
REMARK  135  A    between atoms: _321  and  _324
REMARK  136  A    between atoms: _324  and  _325
REMARK  137  A    between atoms: _328  and  _330
REMARK  138  A    between atoms: _330  and  _331
REMARK  139  A    between atoms: _330  and  _333
REMARK  140  A    between atoms: _333  and  _334
REMARK  141  A    between atoms: _339  and  _340
REMARK  142  A    between atoms: _342  and  _344
REMARK  143  A    between atoms: _344  and  _345
REMARK  144  A    between atoms: _344  and  _347
REMARK  145  A    between atoms: _347  and  _348
REMARK  146  A    between atoms: _348  and  _349
REMARK  147  A    between atoms: _349  and  _350
REMARK  148  A    between atoms: _350  and  _351
REMARK                            x       y       z     vdW  Elec       q    Type
REMARK                         _______ _______ _______ _____ _____    ______ ____
ROOT
ATOM      1  O   HOH     1       1.148   3.714  -4.250  0.00  0.00    +0.000 OA
ENDROOT
TORSDOF 0
REMARK  Name = ../refined-set-2016/3f1a/3f1a_pocket.pdb
REMARK  148 active torsions:
REMARK  status: ('A' for Active; 'I' for Inactive)
REMARK    1  A    between atoms: _1  and  _3
REMARK    2  A    between atoms: _3  and  _4
REMARK    3  A    between atoms: _3  and  _6
REMARK    4  A    between atoms: _6  and  _7
REMARK    5  A    between atoms: _13  and  _15
REMARK    6  A    between atoms: _15  and  _16
REMARK    7  A    between atoms: _15  and  _18
REMARK    8  A    between atoms: _18  and  _19
REMARK    9  A    between atoms: _22  and  _24
REMARK   10  A    between atoms: _24  and  _25
REMARK   11  A    between atoms: _27  and  _29
REMARK   12  A    between atoms: _29  and  _30
REMARK   13  A    between atoms: _32  and  _34
REMARK   14  A    between atoms: _34  and  _35
REMARK   15  A    between atoms: _34  and  _37
REMARK   16  A    between atoms: _35  and  _36
REMARK   17  A    between atoms: _35  and  _41
REMARK   18  A    between atoms: _36  and  CA_356
REMARK   19  A    between atoms: _37  and  _38
REMARK   20  A    between atoms: _41  and  _43
REMARK   21  A    between atoms: _43  and  _44
REMARK   22  A    between atoms: _43  and  _46
REMARK   23  A    between atoms: _46  and  _47
REMARK   24  A    between atoms: _50  and  _52
REMARK   25  A    between atoms: _52  and  _53
REMARK   26  A    between atoms: _56  and  _58
REMARK   27  A    between atoms: _58  and  _59
REMARK   28  A    between atoms: _58  and  _61
REMARK   29  A    between atoms: _61  and  _62
REMARK   30  A    between atoms: _67  and  _69
REMARK   31  A    between atoms: _69  and  _70
REMARK   32  A    between atoms: _73  and  _75
REMARK   33  A    between atoms: _75  and  _76
REMARK   34  A    between atoms: _75  and  _78
REMARK   35  A    between atoms: _78  and  _79
REMARK   36  A    between atoms: _85  and  _87
REMARK   37  A    between atoms: _87  and  _88
REMARK   38  A    between atoms: _87  and  _90
REMARK   39  A    between atoms: _90  and  _91
REMARK   40  A    between atoms: _96  and  _98
REMARK   41  A    between atoms: _98  and  _99
REMARK   42  A    between atoms: _98  and  _101
REMARK   43  A    between atoms: _101  and  _102
REMARK   44  A    between atoms: _108  and  _110
REMARK   45  A    between atoms: _110  and  _111
REMARK   46  A    between atoms: _110  and  _113
REMARK   47  A    between atoms: _113  and  _114
REMARK   48  A    between atoms: _117  and  _119
REMARK   49  A    between atoms: _119  and  _120
REMARK   50  A    between atoms: _119  and  _122
REMARK   51  A    between atoms: _122  and  _123
REMARK   52  A    between atoms: _123  and  _124
REMARK   53  A    between atoms: _124  and  _126
REMARK   54  A    between atoms: _126  and  CA_356
REMARK   55  A    between atoms: _127  and  _129
REMARK   56  A    between atoms: _129  and  _130
REMARK   57  A    between atoms: _129  and  _132
REMARK   58  A    between atoms: _132  and  _133
REMARK   59  A    between atoms: _143  and  _145
REMARK   60  A    between atoms: _145  and  _146
REMARK   61  A    between atoms: _145  and  _148
REMARK   62  A    between atoms: _148  and  _149
REMARK   63  A    between atoms: _152  and  _154
REMARK   64  A    between atoms: _154  and  _155
REMARK   65  A    between atoms: _154  and  _157
REMARK   66  A    between atoms: _157  and  _158
REMARK   67  A    between atoms: _163  and  _165
REMARK   68  A    between atoms: _165  and  _166
REMARK   69  A    between atoms: _165  and  _168
REMARK   70  A    between atoms: _168  and  _169
REMARK   71  A    between atoms: _172  and  _174
REMARK   72  A    between atoms: _174  and  _175
REMARK   73  A    between atoms: _174  and  _177
REMARK   74  A    between atoms: _177  and  _178
REMARK   75  A    between atoms: _181  and  _183
REMARK   76  A    between atoms: _183  and  _184
REMARK   77  A    between atoms: _187  and  _189
REMARK   78  A    between atoms: _189  and  _190
REMARK   79  A    between atoms: _189  and  _192
REMARK   80  A    between atoms: _195  and  _197
REMARK   81  A    between atoms: _197  and  _198
REMARK   82  A    between atoms: _197  and  _200
REMARK   83  A    between atoms: _200  and  _201
REMARK   84  A    between atoms: _205  and  ZN_355
REMARK   85  A    between atoms: _206  and  _208
REMARK   86  A    between atoms: _208  and  _209
REMARK   87  A    between atoms: _208  and  _211
REMARK   88  A    between atoms: _211  and  _212
REMARK   89  A    between atoms: _212  and  _213
REMARK   90  A    between atoms: _216  and  _218
REMARK   91  A    between atoms: _218  and  _219
REMARK   92  A    between atoms: _218  and  _221
REMARK   93  A    between atoms: _221  and  _222
REMARK   94  A    between atoms: _225  and  _227
REMARK   95  A    between atoms: _227  and  _228
REMARK   96  A    between atoms: _227  and  _230
REMARK   97  A    between atoms: _230  and  _231
REMARK   98  A    between atoms: _235  and  ZN_355
REMARK   99  A    between atoms: _236  and  _238
REMARK  100  A    between atoms: _238  and  _239
REMARK  101  A    between atoms: _238  and  _241
REMARK  102  A    between atoms: _241  and  _242
REMARK  103  A    between atoms: _244  and  _246
REMARK  104  A    between atoms: _246  and  _247
REMARK  105  A    between atoms: _246  and  _249
REMARK  106  A    between atoms: _249  and  _250
REMARK  107  A    between atoms: _253  and  _255
REMARK  108  A    between atoms: _255  and  _256
REMARK  109  A    between atoms: _258  and  _260
REMARK  110  A    between atoms: _260  and  _261
REMARK  111  A    between atoms: _260  and  _263
REMARK  112  A    between atoms: _263  and  _264
REMARK  113  A    between atoms: _268  and  ZN_355
REMARK  114  A    between atoms: _269  and  _271
REMARK  115  A    between atoms: _271  and  _272
REMARK  116  A    between atoms: _271  and  _274
REMARK  117  A    between atoms: _274  and  _275
REMARK  118  A    between atoms: _277  and  _279
REMARK  119  A    between atoms: _279  and  _280
REMARK  120  A    between atoms: _283  and  _285
REMARK  121  A    between atoms: _285  and  _286
REMARK  122  A    between atoms: _285  and  _288
REMARK  123  A    between atoms: _291  and  _293
REMARK  124  A    between atoms: _293  and  _294
REMARK  125  A    between atoms: _293  and  _296
REMARK  126  A    between atoms: _296  and  _297
REMARK  127  A    between atoms: _297  and  _298
REMARK  128  A    between atoms: _300  and  _302
REMARK  129  A    between atoms: _302  and  _303
REMARK  130  A    between atoms: _302  and  _305
REMARK  131  A    between atoms: _305  and  _306
REMARK  132  A    between atoms: _313  and  _314
REMARK  133  A    between atoms: _319  and  _321
REMARK  134  A    between atoms: _321  and  _322
REMARK  135  A    between atoms: _321  and  _324
REMARK  136  A    between atoms: _324  and  _325
REMARK  137  A    between atoms: _328  and  _330
REMARK  138  A    between atoms: _330  and  _331
REMARK  139  A    between atoms: _330  and  _333
REMARK  140  A    between atoms: _333  and  _334
REMARK  141  A    between atoms: _339  and  _340
REMARK  142  A    between atoms: _342  and  _344
REMARK  143  A    between atoms: _344  and  _345
REMARK  144  A    between atoms: _344  and  _347
REMARK  145  A    between atoms: _347  and  _348
REMARK  146  A    between atoms: _348  and  _349
REMARK  147  A    between atoms: _349  and  _350
REMARK  148  A    between atoms: _350  and  _351
REMARK                            x       y       z     vdW  Elec       q    Type
REMARK                         _______ _______ _______ _____ _____    ______ ____
ROOT
ATOM      1  O   HOH     1       0.004  -0.343  -3.003  0.00  0.00    +0.000 OA
ENDROOT
TORSDOF 0
REMARK  Name = ../refined-set-2016/3f1a/3f1a_pocket.pdb
REMARK  148 active torsions:
REMARK  status: ('A' for Active; 'I' for Inactive)
REMARK    1  A    between atoms: _1  and  _3
REMARK    2  A    between atoms: _3  and  _4
REMARK    3  A    between atoms: _3  and  _6
REMARK    4  A    between atoms: _6  and  _7
REMARK    5  A    between atoms: _13  and  _15
REMARK    6  A    between atoms: _15  and  _16
REMARK    7  A    between atoms: _15  and  _18
REMARK    8  A    between atoms: _18  and  _19
REMARK    9  A    between atoms: _22  and  _24
REMARK   10  A    between atoms: _24  and  _25
REMARK   11  A    between atoms: _27  and  _29
REMARK   12  A    between atoms: _29  and  _30
REMARK   13  A    between atoms: _32  and  _34
REMARK   14  A    between atoms: _34  and  _35
REMARK   15  A    between atoms: _34  and  _37
REMARK   16  A    between atoms: _35  and  _36
REMARK   17  A    between atoms: _35  and  _41
REMARK   18  A    between atoms: _36  and  CA_356
REMARK   19  A    between atoms: _37  and  _38
REMARK   20  A    between atoms: _41  and  _43
REMARK   21  A    between atoms: _43  and  _44
REMARK   22  A    between atoms: _43  and  _46
REMARK   23  A    between atoms: _46  and  _47
REMARK   24  A    between atoms: _50  and  _52
REMARK   25  A    between atoms: _52  and  _53
REMARK   26  A    between atoms: _56  and  _58
REMARK   27  A    between atoms: _58  and  _59
REMARK   28  A    between atoms: _58  and  _61
REMARK   29  A    between atoms: _61  and  _62
REMARK   30  A    between atoms: _67  and  _69
REMARK   31  A    between atoms: _69  and  _70
REMARK   32  A    between atoms: _73  and  _75
REMARK   33  A    between atoms: _75  and  _76
REMARK   34  A    between atoms: _75  and  _78
REMARK   35  A    between atoms: _78  and  _79
REMARK   36  A    between atoms: _85  and  _87
REMARK   37  A    between atoms: _87  and  _88
REMARK   38  A    between atoms: _87  and  _90
REMARK   39  A    between atoms: _90  and  _91
REMARK   40  A    between atoms: _96  and  _98
REMARK   41  A    between atoms: _98  and  _99
REMARK   42  A    between atoms: _98  and  _101
REMARK   43  A    between atoms: _101  and  _102
REMARK   44  A    between atoms: _108  and  _110
REMARK   45  A    between atoms: _110  and  _111
REMARK   46  A    between atoms: _110  and  _113
REMARK   47  A    between atoms: _113  and  _114
REMARK   48  A    between atoms: _117  and  _119
REMARK   49  A    between atoms: _119  and  _120
REMARK   50  A    between atoms: _119  and  _122
REMARK   51  A    between atoms: _122  and  _123
REMARK   52  A    between atoms: _123  and  _124
REMARK   53  A    between atoms: _124  and  _126
REMARK   54  A    between atoms: _126  and  CA_356
REMARK   55  A    between atoms: _127  and  _129
REMARK   56  A    between atoms: _129  and  _130
REMARK   57  A    between atoms: _129  and  _132
REMARK   58  A    between atoms: _132  and  _133
REMARK   59  A    between atoms: _143  and  _145
REMARK   60  A    between atoms: _145  and  _146
REMARK   61  A    between atoms: _145  and  _148
REMARK   62  A    between atoms: _148  and  _149
REMARK   63  A    between atoms: _152  and  _154
REMARK   64  A    between atoms: _154  and  _155
REMARK   65  A    between atoms: _154  and  _157
REMARK   66  A    between atoms: _157  and  _158
REMARK   67  A    between atoms: _163  and  _165
REMARK   68  A    between atoms: _165  and  _166
REMARK   69  A    between atoms: _165  and  _168
REMARK   70  A    between atoms: _168  and  _169
REMARK   71  A    between atoms: _172  and  _174
REMARK   72  A    between atoms: _174  and  _175
REMARK   73  A    between atoms: _174  and  _177
REMARK   74  A    between atoms: _177  and  _178
REMARK   75  A    between atoms: _181  and  _183
REMARK   76  A    between atoms: _183  and  _184
REMARK   77  A    between atoms: _187  and  _189
REMARK   78  A    between atoms: _189  and  _190
REMARK   79  A    between atoms: _189  and  _192
REMARK   80  A    between atoms: _195  and  _197
REMARK   81  A    between atoms: _197  and  _198
REMARK   82  A    between atoms: _197  and  _200
REMARK   83  A    between atoms: _200  and  _201
REMARK   84  A    between atoms: _205  and  ZN_355
REMARK   85  A    between atoms: _206  and  _208
REMARK   86  A    between atoms: _208  and  _209
REMARK   87  A    between atoms: _208  and  _211
REMARK   88  A    between atoms: _211  and  _212
REMARK   89  A    between atoms: _212  and  _213
REMARK   90  A    between atoms: _216  and  _218
REMARK   91  A    between atoms: _218  and  _219
REMARK   92  A    between atoms: _218  and  _221
REMARK   93  A    between atoms: _221  and  _222
REMARK   94  A    between atoms: _225  and  _227
REMARK   95  A    between atoms: _227  and  _228
REMARK   96  A    between atoms: _227  and  _230
REMARK   97  A    between atoms: _230  and  _231
REMARK   98  A    between atoms: _235  and  ZN_355
REMARK   99  A    between atoms: _236  and  _238
REMARK  100  A    between atoms: _238  and  _239
REMARK  101  A    between atoms: _238  and  _241
REMARK  102  A    between atoms: _241  and  _242
REMARK  103  A    between atoms: _244  and  _246
REMARK  104  A    between atoms: _246  and  _247
REMARK  105  A    between atoms: _246  and  _249
REMARK  106  A    between atoms: _249  and  _250
REMARK  107  A    between atoms: _253  and  _255
REMARK  108  A    between atoms: _255  and  _256
REMARK  109  A    between atoms: _258  and  _260
REMARK  110  A    between atoms: _260  and  _261
REMARK  111  A    between atoms: _260  and  _263
REMARK  112  A    between atoms: _263  and  _264
REMARK  113  A    between atoms: _268  and  ZN_355
REMARK  114  A    between atoms: _269  and  _271
REMARK  115  A    between atoms: _271  and  _272
REMARK  116  A    between atoms: _271  and  _274
REMARK  117  A    between atoms: _274  and  _275
REMARK  118  A    between atoms: _277  and  _279
REMARK  119  A    between atoms: _279  and  _280
REMARK  120  A    between atoms: _283  and  _285
REMARK  121  A    between atoms: _285  and  _286
REMARK  122  A    between atoms: _285  and  _288
REMARK  123  A    between atoms: _291  and  _293
REMARK  124  A    between atoms: _293  and  _294
REMARK  125  A    between atoms: _293  and  _296
REMARK  126  A    between atoms: _296  and  _297
REMARK  127  A    between atoms: _297  and  _298
REMARK  128  A    between atoms: _300  and  _302
REMARK  129  A    between atoms: _302  and  _303
REMARK  130  A    between atoms: _302  and  _305
REMARK  131  A    between atoms: _305  and  _306
REMARK  132  A    between atoms: _313  and  _314
REMARK  133  A    between atoms: _319  and  _321
REMARK  134  A    between atoms: _321  and  _322
REMARK  135  A    between atoms: _321  and  _324
REMARK  136  A    between atoms: _324  and  _325
REMARK  137  A    between atoms: _328  and  _330
REMARK  138  A    between atoms: _330  and  _331
REMARK  139  A    between atoms: _330  and  _333
REMARK  140  A    between atoms: _333  and  _334
REMARK  141  A    between atoms: _339  and  _340
REMARK  142  A    between atoms: _342  and  _344
REMARK  143  A    between atoms: _344  and  _345
REMARK  144  A    between atoms: _344  and  _347
REMARK  145  A    between atoms: _347  and  _348
REMARK  146  A    between atoms: _348  and  _349
REMARK  147  A    between atoms: _349  and  _350
REMARK  148  A    between atoms: _350  and  _351
REMARK                            x       y       z     vdW  Elec       q    Type
REMARK                         _______ _______ _______ _____ _____    ______ ____
ROOT
ATOM      1  O   HOH     1       0.000  -3.369   0.002  0.00  0.00    +0.000 OA
ENDROOT
TORSDOF 0
REMARK  Name = ../refined-set-2016/3f1a/3f1a_pocket.pdb
REMARK  148 active torsions:
REMARK  status: ('A' for Active; 'I' for Inactive)
REMARK    1  A    between atoms: _1  and  _3
REMARK    2  A    between atoms: _3  and  _4
REMARK    3  A    between atoms: _3  and  _6
REMARK    4  A    between atoms: _6  and  _7
REMARK    5  A    between atoms: _13  and  _15
REMARK    6  A    between atoms: _15  and  _16
REMARK    7  A    between atoms: _15  and  _18
REMARK    8  A    between atoms: _18  and  _19
REMARK    9  A    between atoms: _22  and  _24
REMARK   10  A    between atoms: _24  and  _25
REMARK   11  A    between atoms: _27  and  _29
REMARK   12  A    between atoms: _29  and  _30
REMARK   13  A    between atoms: _32  and  _34
REMARK   14  A    between atoms: _34  and  _35
REMARK   15  A    between atoms: _34  and  _37
REMARK   16  A    between atoms: _35  and  _36
REMARK   17  A    between atoms: _35  and  _41
REMARK   18  A    between atoms: _36  and  CA_356
REMARK   19  A    between atoms: _37  and  _38
REMARK   20  A    between atoms: _41  and  _43
REMARK   21  A    between atoms: _43  and  _44
REMARK   22  A    between atoms: _43  and  _46
REMARK   23  A    between atoms: _46  and  _47
REMARK   24  A    between atoms: _50  and  _52
REMARK   25  A    between atoms: _52  and  _53
REMARK   26  A    between atoms: _56  and  _58
REMARK   27  A    between atoms: _58  and  _59
REMARK   28  A    between atoms: _58  and  _61
REMARK   29  A    between atoms: _61  and  _62
REMARK   30  A    between atoms: _67  and  _69
REMARK   31  A    between atoms: _69  and  _70
REMARK   32  A    between atoms: _73  and  _75
REMARK   33  A    between atoms: _75  and  _76
REMARK   34  A    between atoms: _75  and  _78
REMARK   35  A    between atoms: _78  and  _79
REMARK   36  A    between atoms: _85  and  _87
REMARK   37  A    between atoms: _87  and  _88
REMARK   38  A    between atoms: _87  and  _90
REMARK   39  A    between atoms: _90  and  _91
REMARK   40  A    between atoms: _96  and  _98
REMARK   41  A    between atoms: _98  and  _99
REMARK   42  A    between atoms: _98  and  _101
REMARK   43  A    between atoms: _101  and  _102
REMARK   44  A    between atoms: _108  and  _110
REMARK   45  A    between atoms: _110  and  _111
REMARK   46  A    between atoms: _110  and  _113
REMARK   47  A    between atoms: _113  and  _114
REMARK   48  A    between atoms: _117  and  _119
REMARK   49  A    between atoms: _119  and  _120
REMARK   50  A    between atoms: _119  and  _122
REMARK   51  A    between atoms: _122  and  _123
REMARK   52  A    between atoms: _123  and  _124
REMARK   53  A    between atoms: _124  and  _126
REMARK   54  A    between atoms: _126  and  CA_356
REMARK   55  A    between atoms: _127  and  _129
REMARK   56  A    between atoms: _129  and  _130
REMARK   57  A    between atoms: _129  and  _132
REMARK   58  A    between atoms: _132  and  _133
REMARK   59  A    between atoms: _143  and  _145
REMARK   60  A    between atoms: _145  and  _146
REMARK   61  A    between atoms: _145  and  _148
REMARK   62  A    between atoms: _148  and  _149
REMARK   63  A    between atoms: _152  and  _154
REMARK   64  A    between atoms: _154  and  _155
REMARK   65  A    between atoms: _154  and  _157
REMARK   66  A    between atoms: _157  and  _158
REMARK   67  A    between atoms: _163  and  _165
REMARK   68  A    between atoms: _165  and  _166
REMARK   69  A    between atoms: _165  and  _168
REMARK   70  A    between atoms: _168  and  _169
REMARK   71  A    between atoms: _172  and  _174
REMARK   72  A    between atoms: _174  and  _175
REMARK   73  A    between atoms: _174  and  _177
REMARK   74  A    between atoms: _177  and  _178
REMARK   75  A    between atoms: _181  and  _183
REMARK   76  A    between atoms: _183  and  _184
REMARK   77  A    between atoms: _187  and  _189
REMARK   78  A    between atoms: _189  and  _190
REMARK   79  A    between atoms: _189  and  _192
REMARK   80  A    between atoms: _195  and  _197
REMARK   81  A    between atoms: _197  and  _198
REMARK   82  A    between atoms: _197  and  _200
REMARK   83  A    between atoms: _200  and  _201
REMARK   84  A    between atoms: _205  and  ZN_355
REMARK   85  A    between atoms: _206  and  _208
REMARK   86  A    between atoms: _208  and  _209
REMARK   87  A    between atoms: _208  and  _211
REMARK   88  A    between atoms: _211  and  _212
REMARK   89  A    between atoms: _212  and  _213
REMARK   90  A    between atoms: _216  and  _218
REMARK   91  A    between atoms: _218  and  _219
REMARK   92  A    between atoms: _218  and  _221
REMARK   93  A    between atoms: _221  and  _222
REMARK   94  A    between atoms: _225  and  _227
REMARK   95  A    between atoms: _227  and  _228
REMARK   96  A    between atoms: _227  and  _230
REMARK   97  A    between atoms: _230  and  _231
REMARK   98  A    between atoms: _235  and  ZN_355
REMARK   99  A    between atoms: _236  and  _238
REMARK  100  A    between atoms: _238  and  _239
REMARK  101  A    between atoms: _238  and  _241
REMARK  102  A    between atoms: _241  and  _242
REMARK  103  A    between atoms: _244  and  _246
REMARK  104  A    between atoms: _246  and  _247
REMARK  105  A    between atoms: _246  and  _249
REMARK  106  A    between atoms: _249  and  _250
REMARK  107  A    between atoms: _253  and  _255
REMARK  108  A    between atoms: _255  and  _256
REMARK  109  A    between atoms: _258  and  _260
REMARK  110  A    between atoms: _260  and  _261
REMARK  111  A    between atoms: _260  and  _263
REMARK  112  A    between atoms: _263  and  _264
REMARK  113  A    between atoms: _268  and  ZN_355
REMARK  114  A    between atoms: _269  and  _271
REMARK  115  A    between atoms: _271  and  _272
REMARK  116  A    between atoms: _271  and  _274
REMARK  117  A    between atoms: _274  and  _275
REMARK  118  A    between atoms: _277  and  _279
REMARK  119  A    between atoms: _279  and  _280
REMARK  120  A    between atoms: _283  and  _285
REMARK  121  A    between atoms: _285  and  _286
REMARK  122  A    between atoms: _285  and  _288
REMARK  123  A    between atoms: _291  and  _293
REMARK  124  A    between atoms: _293  and  _294
REMARK  125  A    between atoms: _293  and  _296
REMARK  126  A    between atoms: _296  and  _297
REMARK  127  A    between atoms: _297  and  _298
REMARK  128  A    between atoms: _300  and  _302
REMARK  129  A    between atoms: _302  and  _303
REMARK  130  A    between atoms: _302  and  _305
REMARK  131  A    between atoms: _305  and  _306
REMARK  132  A    between atoms: _313  and  _314
REMARK  133  A    between atoms: _319  and  _321
REMARK  134  A    between atoms: _321  and  _322
REMARK  135  A    between atoms: _321  and  _324
REMARK  136  A    between atoms: _324  and  _325
REMARK  137  A    between atoms: _328  and  _330
REMARK  138  A    between atoms: _330  and  _331
REMARK  139  A    between atoms: _330  and  _333
REMARK  140  A    between atoms: _333  and  _334
REMARK  141  A    between atoms: _339  and  _340
REMARK  142  A    between atoms: _342  and  _344
REMARK  143  A    between atoms: _344  and  _345
REMARK  144  A    between atoms: _344  and  _347
REMARK  145  A    between atoms: _347  and  _348
REMARK  146  A    between atoms: _348  and  _349
REMARK  147  A    between atoms: _349  and  _350
REMARK  148  A    between atoms: _350  and  _351
REMARK                            x       y       z     vdW  Elec       q    Type
REMARK                         _______ _______ _______ _____ _____    ______ ____
ROOT
ATOM      1  O   HOH     1      -0.403   2.212  -2.592  0.00  0.00    +0.000 OA
ENDROOT
TORSDOF 0
REMARK  Name = ../refined-set-2016/3f1a/3f1a_pocket.pdb
REMARK  148 active torsions:
REMARK  status: ('A' for Active; 'I' for Inactive)
REMARK    1  A    between atoms: _1  and  _3
REMARK    2  A    between atoms: _3  and  _4
REMARK    3  A    between atoms: _3  and  _6
REMARK    4  A    between atoms: _6  and  _7
REMARK    5  A    between atoms: _13  and  _15
REMARK    6  A    between atoms: _15  and  _16
REMARK    7  A    between atoms: _15  and  _18
REMARK    8  A    between atoms: _18  and  _19
REMARK    9  A    between atoms: _22  and  _24
REMARK   10  A    between atoms: _24  and  _25
REMARK   11  A    between atoms: _27  and  _29
REMARK   12  A    between atoms: _29  and  _30
REMARK   13  A    between atoms: _32  and  _34
REMARK   14  A    between atoms: _34  and  _35
REMARK   15  A    between atoms: _34  and  _37
REMARK   16  A    between atoms: _35  and  _36
REMARK   17  A    between atoms: _35  and  _41
REMARK   18  A    between atoms: _36  and  CA_356
REMARK   19  A    between atoms: _37  and  _38
REMARK   20  A    between atoms: _41  and  _43
REMARK   21  A    between atoms: _43  and  _44
REMARK   22  A    between atoms: _43  and  _46
REMARK   23  A    between atoms: _46  and  _47
REMARK   24  A    between atoms: _50  and  _52
REMARK   25  A    between atoms: _52  and  _53
REMARK   26  A    between atoms: _56  and  _58
REMARK   27  A    between atoms: _58  and  _59
REMARK   28  A    between atoms: _58  and  _61
REMARK   29  A    between atoms: _61  and  _62
REMARK   30  A    between atoms: _67  and  _69
REMARK   31  A    between atoms: _69  and  _70
REMARK   32  A    between atoms: _73  and  _75
REMARK   33  A    between atoms: _75  and  _76
REMARK   34  A    between atoms: _75  and  _78
REMARK   35  A    between atoms: _78  and  _79
REMARK   36  A    between atoms: _85  and  _87
REMARK   37  A    between atoms: _87  and  _88
REMARK   38  A    between atoms: _87  and  _90
REMARK   39  A    between atoms: _90  and  _91
REMARK   40  A    between atoms: _96  and  _98
REMARK   41  A    between atoms: _98  and  _99
REMARK   42  A    between atoms: _98  and  _101
REMARK   43  A    between atoms: _101  and  _102
REMARK   44  A    between atoms: _108  and  _110
REMARK   45  A    between atoms: _110  and  _111
REMARK   46  A    between atoms: _110  and  _113
REMARK   47  A    between atoms: _113  and  _114
REMARK   48  A    between atoms: _117  and  _119
REMARK   49  A    between atoms: _119  and  _120
REMARK   50  A    between atoms: _119  and  _122
REMARK   51  A    between atoms: _122  and  _123
REMARK   52  A    between atoms: _123  and  _124
REMARK   53  A    between atoms: _124  and  _126
REMARK   54  A    between atoms: _126  and  CA_356
REMARK   55  A    between atoms: _127  and  _129
REMARK   56  A    between atoms: _129  and  _130
REMARK   57  A    between atoms: _129  and  _132
REMARK   58  A    between atoms: _132  and  _133
REMARK   59  A    between atoms: _143  and  _145
REMARK   60  A    between atoms: _145  and  _146
REMARK   61  A    between atoms: _145  and  _148
REMARK   62  A    between atoms: _148  and  _149
REMARK   63  A    between atoms: _152  and  _154
REMARK   64  A    between atoms: _154  and  _155
REMARK   65  A    between atoms: _154  and  _157
REMARK   66  A    between atoms: _157  and  _158
REMARK   67  A    between atoms: _163  and  _165
REMARK   68  A    between atoms: _165  and  _166
REMARK   69  A    between atoms: _165  and  _168
REMARK   70  A    between atoms: _168  and  _169
REMARK   71  A    between atoms: _172  and  _174
REMARK   72  A    between atoms: _174  and  _175
REMARK   73  A    between atoms: _174  and  _177
REMARK   74  A    between atoms: _177  and  _178
REMARK   75  A    between atoms: _181  and  _183
REMARK   76  A    between atoms: _183  and  _184
REMARK   77  A    between atoms: _187  and  _189
REMARK   78  A    between atoms: _189  and  _190
REMARK   79  A    between atoms: _189  and  _192
REMARK   80  A    between atoms: _195  and  _197
REMARK   81  A    between atoms: _197  and  _198
REMARK   82  A    between atoms: _197  and  _200
REMARK   83  A    between atoms: _200  and  _201
REMARK   84  A    between atoms: _205  and  ZN_355
REMARK   85  A    between atoms: _206  and  _208
REMARK   86  A    between atoms: _208  and  _209
REMARK   87  A    between atoms: _208  and  _211
REMARK   88  A    between atoms: _211  and  _212
REMARK   89  A    between atoms: _212  and  _213
REMARK   90  A    between atoms: _216  and  _218
REMARK   91  A    between atoms: _218  and  _219
REMARK   92  A    between atoms: _218  and  _221
REMARK   93  A    between atoms: _221  and  _222
REMARK   94  A    between atoms: _225  and  _227
REMARK   95  A    between atoms: _227  and  _228
REMARK   96  A    between atoms: _227  and  _230
REMARK   97  A    between atoms: _230  and  _231
REMARK   98  A    between atoms: _235  and  ZN_355
REMARK   99  A    between atoms: _236  and  _238
REMARK  100  A    between atoms: _238  and  _239
REMARK  101  A    between atoms: _238  and  _241
REMARK  102  A    between atoms: _241  and  _242
REMARK  103  A    between atoms: _244  and  _246
REMARK  104  A    between atoms: _246  and  _247
REMARK  105  A    between atoms: _246  and  _249
REMARK  106  A    between atoms: _249  and  _250
REMARK  107  A    between atoms: _253  and  _255
REMARK  108  A    between atoms: _255  and  _256
REMARK  109  A    between atoms: _258  and  _260
REMARK  110  A    between atoms: _260  and  _261
REMARK  111  A    between atoms: _260  and  _263
REMARK  112  A    between atoms: _263  and  _264
REMARK  113  A    between atoms: _268  and  ZN_355
REMARK  114  A    between atoms: _269  and  _271
REMARK  115  A    between atoms: _271  and  _272
REMARK  116  A    between atoms: _271  and  _274
REMARK  117  A    between atoms: _274  and  _275
REMARK  118  A    between atoms: _277  and  _279
REMARK  119  A    between atoms: _279  and  _280
REMARK  120  A    between atoms: _283  and  _285
REMARK  121  A    between atoms: _285  and  _286
REMARK  122  A    between atoms: _285  and  _288
REMARK  123  A    between atoms: _291  and  _293
REMARK  124  A    between atoms: _293  and  _294
REMARK  125  A    between atoms: _293  and  _296
REMARK  126  A    between atoms: _296  and  _297
REMARK  127  A    between atoms: _297  and  _298
REMARK  128  A    between atoms: _300  and  _302
REMARK  129  A    between atoms: _302  and  _303
REMARK  130  A    between atoms: _302  and  _305
REMARK  131  A    between atoms: _305  and  _306
REMARK  132  A    between atoms: _313  and  _314
REMARK  133  A    between atoms: _319  and  _321
REMARK  134  A    between atoms: _321  and  _322
REMARK  135  A    between atoms: _321  and  _324
REMARK  136  A    between atoms: _324  and  _325
REMARK  137  A    between atoms: _328  and  _330
REMARK  138  A    between atoms: _330  and  _331
REMARK  139  A    between atoms: _330  and  _333
REMARK  140  A    between atoms: _333  and  _334
REMARK  141  A    between atoms: _339  and  _340
REMARK  142  A    between atoms: _342  and  _344
REMARK  143  A    between atoms: _344  and  _345
REMARK  144  A    between atoms: _344  and  _347
REMARK  145  A    between atoms: _347  and  _348
REMARK  146  A    between atoms: _348  and  _349
REMARK  147  A    between atoms: _349  and  _350
REMARK  148  A    between atoms: _350  and  _351
REMARK                            x       y       z     vdW  Elec       q    Type
REMARK                         _______ _______ _______ _____ _____    ______ ____
ROOT
ATOM      1  O   HOH     1      -3.548  -4.737  -1.756  0.00  0.00    +0.000 OA
ENDROOT
TORSDOF 0
REMARK  Name = ../refined-set-2016/3f1a/3f1a_pocket.pdb
REMARK  148 active torsions:
REMARK  status: ('A' for Active; 'I' for Inactive)
REMARK    1  A    between atoms: _1  and  _3
REMARK    2  A    between atoms: _3  and  _4
REMARK    3  A    between atoms: _3  and  _6
REMARK    4  A    between atoms: _6  and  _7
REMARK    5  A    between atoms: _13  and  _15
REMARK    6  A    between atoms: _15  and  _16
REMARK    7  A    between atoms: _15  and  _18
REMARK    8  A    between atoms: _18  and  _19
REMARK    9  A    between atoms: _22  and  _24
REMARK   10  A    between atoms: _24  and  _25
REMARK   11  A    between atoms: _27  and  _29
REMARK   12  A    between atoms: _29  and  _30
REMARK   13  A    between atoms: _32  and  _34
REMARK   14  A    between atoms: _34  and  _35
REMARK   15  A    between atoms: _34  and  _37
REMARK   16  A    between atoms: _35  and  _36
REMARK   17  A    between atoms: _35  and  _41
REMARK   18  A    between atoms: _36  and  CA_356
REMARK   19  A    between atoms: _37  and  _38
REMARK   20  A    between atoms: _41  and  _43
REMARK   21  A    between atoms: _43  and  _44
REMARK   22  A    between atoms: _43  and  _46
REMARK   23  A    between atoms: _46  and  _47
REMARK   24  A    between atoms: _50  and  _52
REMARK   25  A    between atoms: _52  and  _53
REMARK   26  A    between atoms: _56  and  _58
REMARK   27  A    between atoms: _58  and  _59
REMARK   28  A    between atoms: _58  and  _61
REMARK   29  A    between atoms: _61  and  _62
REMARK   30  A    between atoms: _67  and  _69
REMARK   31  A    between atoms: _69  and  _70
REMARK   32  A    between atoms: _73  and  _75
REMARK   33  A    between atoms: _75  and  _76
REMARK   34  A    between atoms: _75  and  _78
REMARK   35  A    between atoms: _78  and  _79
REMARK   36  A    between atoms: _85  and  _87
REMARK   37  A    between atoms: _87  and  _88
REMARK   38  A    between atoms: _87  and  _90
REMARK   39  A    between atoms: _90  and  _91
REMARK   40  A    between atoms: _96  and  _98
REMARK   41  A    between atoms: _98  and  _99
REMARK   42  A    between atoms: _98  and  _101
REMARK   43  A    between atoms: _101  and  _102
REMARK   44  A    between atoms: _108  and  _110
REMARK   45  A    between atoms: _110  and  _111
REMARK   46  A    between atoms: _110  and  _113
REMARK   47  A    between atoms: _113  and  _114
REMARK   48  A    between atoms: _117  and  _119
REMARK   49  A    between atoms: _119  and  _120
REMARK   50  A    between atoms: _119  and  _122
REMARK   51  A    between atoms: _122  and  _123
REMARK   52  A    between atoms: _123  and  _124
REMARK   53  A    between atoms: _124  and  _126
REMARK   54  A    between atoms: _126  and  CA_356
REMARK   55  A    between atoms: _127  and  _129
REMARK   56  A    between atoms: _129  and  _130
REMARK   57  A    between atoms: _129  and  _132
REMARK   58  A    between atoms: _132  and  _133
REMARK   59  A    between atoms: _143  and  _145
REMARK   60  A    between atoms: _145  and  _146
REMARK   61  A    between atoms: _145  and  _148
REMARK   62  A    between atoms: _148  and  _149
REMARK   63  A    between atoms: _152  and  _154
REMARK   64  A    between atoms: _154  and  _155
REMARK   65  A    between atoms: _154  and  _157
REMARK   66  A    between atoms: _157  and  _158
REMARK   67  A    between atoms: _163  and  _165
REMARK   68  A    between atoms: _165  and  _166
REMARK   69  A    between atoms: _165  and  _168
REMARK   70  A    between atoms: _168  and  _169
REMARK   71  A    between atoms: _172  and  _174
REMARK   72  A    between atoms: _174  and  _175
REMARK   73  A    between atoms: _174  and  _177
REMARK   74  A    between atoms: _177  and  _178
REMARK   75  A    between atoms: _181  and  _183
REMARK   76  A    between atoms: _183  and  _184
REMARK   77  A    between atoms: _187  and  _189
REMARK   78  A    between atoms: _189  and  _190
REMARK   79  A    between atoms: _189  and  _192
REMARK   80  A    between atoms: _195  and  _197
REMARK   81  A    between atoms: _197  and  _198
REMARK   82  A    between atoms: _197  and  _200
REMARK   83  A    between atoms: _200  and  _201
REMARK   84  A    between atoms: _205  and  ZN_355
REMARK   85  A    between atoms: _206  and  _208
REMARK   86  A    between atoms: _208  and  _209
REMARK   87  A    between atoms: _208  and  _211
REMARK   88  A    between atoms: _211  and  _212
REMARK   89  A    between atoms: _212  and  _213
REMARK   90  A    between atoms: _216  and  _218
REMARK   91  A    between atoms: _218  and  _219
REMARK   92  A    between atoms: _218  and  _221
REMARK   93  A    between atoms: _221  and  _222
REMARK   94  A    between atoms: _225  and  _227
REMARK   95  A    between atoms: _227  and  _228
REMARK   96  A    between atoms: _227  and  _230
REMARK   97  A    between atoms: _230  and  _231
REMARK   98  A    between atoms: _235  and  ZN_355
REMARK   99  A    between atoms: _236  and  _238
REMARK  100  A    between atoms: _238  and  _239
REMARK  101  A    between atoms: _238  and  _241
REMARK  102  A    between atoms: _241  and  _242
REMARK  103  A    between atoms: _244  and  _246
REMARK  104  A    between atoms: _246  and  _247
REMARK  105  A    between atoms: _246  and  _249
REMARK  106  A    between atoms: _249  and  _250
REMARK  107  A    between atoms: _253  and  _255
REMARK  108  A    between atoms: _255  and  _256
REMARK  109  A    between atoms: _258  and  _260
REMARK  110  A    between atoms: _260  and  _261
REMARK  111  A    between atoms: _260  and  _263
REMARK  112  A    between atoms: _263  and  _264
REMARK  113  A    between atoms: _268  and  ZN_355
REMARK  114  A    between atoms: _269  and  _271
REMARK  115  A    between atoms: _271  and  _272
REMARK  116  A    between atoms: _271  and  _274
REMARK  117  A    between atoms: _274  and  _275
REMARK  118  A    between atoms: _277  and  _279
REMARK  119  A    between atoms: _279  and  _280
REMARK  120  A    between atoms: _283  and  _285
REMARK  121  A    between atoms: _285  and  _286
REMARK  122  A    between atoms: _285  and  _288
REMARK  123  A    between atoms: _291  and  _293
REMARK  124  A    between atoms: _293  and  _294
REMARK  125  A    between atoms: _293  and  _296
REMARK  126  A    between atoms: _296  and  _297
REMARK  127  A    between atoms: _297  and  _298
REMARK  128  A    between atoms: _300  and  _302
REMARK  129  A    between atoms: _302  and  _303
REMARK  130  A    between atoms: _302  and  _305
REMARK  131  A    between atoms: _305  and  _306
REMARK  132  A    between atoms: _313  and  _314
REMARK  133  A    between atoms: _319  and  _321
REMARK  134  A    between atoms: _321  and  _322
REMARK  135  A    between atoms: _321  and  _324
REMARK  136  A    between atoms: _324  and  _325
REMARK  137  A    between atoms: _328  and  _330
REMARK  138  A    between atoms: _330  and  _331
REMARK  139  A    between atoms: _330  and  _333
REMARK  140  A    between atoms: _333  and  _334
REMARK  141  A    between atoms: _339  and  _340
REMARK  142  A    between atoms: _342  and  _344
REMARK  143  A    between atoms: _344  and  _345
REMARK  144  A    between atoms: _344  and  _347
REMARK  145  A    between atoms: _347  and  _348
REMARK  146  A    between atoms: _348  and  _349
REMARK  147  A    between atoms: _349  and  _350
REMARK  148  A    between atoms: _350  and  _351
REMARK                            x       y       z     vdW  Elec       q    Type
REMARK                         _______ _______ _______ _____ _____    ______ ____
ROOT
ATOM      1  O   HOH     1     -11.930  -8.889  -7.056  0.00  0.00    +0.000 OA
ENDROOT
TORSDOF 0
REMARK  Name = ../refined-set-2016/3f1a/3f1a_pocket.pdb
REMARK  148 active torsions:
REMARK  status: ('A' for Active; 'I' for Inactive)
REMARK    1  A    between atoms: _1  and  _3
REMARK    2  A    between atoms: _3  and  _4
REMARK    3  A    between atoms: _3  and  _6
REMARK    4  A    between atoms: _6  and  _7
REMARK    5  A    between atoms: _13  and  _15
REMARK    6  A    between atoms: _15  and  _16
REMARK    7  A    between atoms: _15  and  _18
REMARK    8  A    between atoms: _18  and  _19
REMARK    9  A    between atoms: _22  and  _24
REMARK   10  A    between atoms: _24  and  _25
REMARK   11  A    between atoms: _27  and  _29
REMARK   12  A    between atoms: _29  and  _30
REMARK   13  A    between atoms: _32  and  _34
REMARK   14  A    between atoms: _34  and  _35
REMARK   15  A    between atoms: _34  and  _37
REMARK   16  A    between atoms: _35  and  _36
REMARK   17  A    between atoms: _35  and  _41
REMARK   18  A    between atoms: _36  and  CA_356
REMARK   19  A    between atoms: _37  and  _38
REMARK   20  A    between atoms: _41  and  _43
REMARK   21  A    between atoms: _43  and  _44
REMARK   22  A    between atoms: _43  and  _46
REMARK   23  A    between atoms: _46  and  _47
REMARK   24  A    between atoms: _50  and  _52
REMARK   25  A    between atoms: _52  and  _53
REMARK   26  A    between atoms: _56  and  _58
REMARK   27  A    between atoms: _58  and  _59
REMARK   28  A    between atoms: _58  and  _61
REMARK   29  A    between atoms: _61  and  _62
REMARK   30  A    between atoms: _67  and  _69
REMARK   31  A    between atoms: _69  and  _70
REMARK   32  A    between atoms: _73  and  _75
REMARK   33  A    between atoms: _75  and  _76
REMARK   34  A    between atoms: _75  and  _78
REMARK   35  A    between atoms: _78  and  _79
REMARK   36  A    between atoms: _85  and  _87
REMARK   37  A    between atoms: _87  and  _88
REMARK   38  A    between atoms: _87  and  _90
REMARK   39  A    between atoms: _90  and  _91
REMARK   40  A    between atoms: _96  and  _98
REMARK   41  A    between atoms: _98  and  _99
REMARK   42  A    between atoms: _98  and  _101
REMARK   43  A    between atoms: _101  and  _102
REMARK   44  A    between atoms: _108  and  _110
REMARK   45  A    between atoms: _110  and  _111
REMARK   46  A    between atoms: _110  and  _113
REMARK   47  A    between atoms: _113  and  _114
REMARK   48  A    between atoms: _117  and  _119
REMARK   49  A    between atoms: _119  and  _120
REMARK   50  A    between atoms: _119  and  _122
REMARK   51  A    between atoms: _122  and  _123
REMARK   52  A    between atoms: _123  and  _124
REMARK   53  A    between atoms: _124  and  _126
REMARK   54  A    between atoms: _126  and  CA_356
REMARK   55  A    between atoms: _127  and  _129
REMARK   56  A    between atoms: _129  and  _130
REMARK   57  A    between atoms: _129  and  _132
REMARK   58  A    between atoms: _132  and  _133
REMARK   59  A    between atoms: _143  and  _145
REMARK   60  A    between atoms: _145  and  _146
REMARK   61  A    between atoms: _145  and  _148
REMARK   62  A    between atoms: _148  and  _149
REMARK   63  A    between atoms: _152  and  _154
REMARK   64  A    between atoms: _154  and  _155
REMARK   65  A    between atoms: _154  and  _157
REMARK   66  A    between atoms: _157  and  _158
REMARK   67  A    between atoms: _163  and  _165
REMARK   68  A    between atoms: _165  and  _166
REMARK   69  A    between atoms: _165  and  _168
REMARK   70  A    between atoms: _168  and  _169
REMARK   71  A    between atoms: _172  and  _174
REMARK   72  A    between atoms: _174  and  _175
REMARK   73  A    between atoms: _174  and  _177
REMARK   74  A    between atoms: _177  and  _178
REMARK   75  A    between atoms: _181  and  _183
REMARK   76  A    between atoms: _183  and  _184
REMARK   77  A    between atoms: _187  and  _189
REMARK   78  A    between atoms: _189  and  _190
REMARK   79  A    between atoms: _189  and  _192
REMARK   80  A    between atoms: _195  and  _197
REMARK   81  A    between atoms: _197  and  _198
REMARK   82  A    between atoms: _197  and  _200
REMARK   83  A    between atoms: _200  and  _201
REMARK   84  A    between atoms: _205  and  ZN_355
REMARK   85  A    between atoms: _206  and  _208
REMARK   86  A    between atoms: _208  and  _209
REMARK   87  A    between atoms: _208  and  _211
REMARK   88  A    between atoms: _211  and  _212
REMARK   89  A    between atoms: _212  and  _213
REMARK   90  A    between atoms: _216  and  _218
REMARK   91  A    between atoms: _218  and  _219
REMARK   92  A    between atoms: _218  and  _221
REMARK   93  A    between atoms: _221  and  _222
REMARK   94  A    between atoms: _225  and  _227
REMARK   95  A    between atoms: _227  and  _228
REMARK   96  A    between atoms: _227  and  _230
REMARK   97  A    between atoms: _230  and  _231
REMARK   98  A    between atoms: _235  and  ZN_355
REMARK   99  A    between atoms: _236  and  _238
REMARK  100  A    between atoms: _238  and  _239
REMARK  101  A    between atoms: _238  and  _241
REMARK  102  A    between atoms: _241  and  _242
REMARK  103  A    between atoms: _244  and  _246
REMARK  104  A    between atoms: _246  and  _247
REMARK  105  A    between atoms: _246  and  _249
REMARK  106  A    between atoms: _249  and  _250
REMARK  107  A    between atoms: _253  and  _255
REMARK  108  A    between atoms: _255  and  _256
REMARK  109  A    between atoms: _258  and  _260
REMARK  110  A    between atoms: _260  and  _261
REMARK  111  A    between atoms: _260  and  _263
REMARK  112  A    between atoms: _263  and  _264
REMARK  113  A    between atoms: _268  and  ZN_355
REMARK  114  A    between atoms: _269  and  _271
REMARK  115  A    between atoms: _271  and  _272
REMARK  116  A    between atoms: _271  and  _274
REMARK  117  A    between atoms: _274  and  _275
REMARK  118  A    between atoms: _277  and  _279
REMARK  119  A    between atoms: _279  and  _280
REMARK  120  A    between atoms: _283  and  _285
REMARK  121  A    between atoms: _285  and  _286
REMARK  122  A    between atoms: _285  and  _288
REMARK  123  A    between atoms: _291  and  _293
REMARK  124  A    between atoms: _293  and  _294
REMARK  125  A    between atoms: _293  and  _296
REMARK  126  A    between atoms: _296  and  _297
REMARK  127  A    between atoms: _297  and  _298
REMARK  128  A    between atoms: _300  and  _302
REMARK  129  A    between atoms: _302  and  _303
REMARK  130  A    between atoms: _302  and  _305
REMARK  131  A    between atoms: _305  and  _306
REMARK  132  A    between atoms: _313  and  _314
REMARK  133  A    between atoms: _319  and  _321
REMARK  134  A    between atoms: _321  and  _322
REMARK  135  A    between atoms: _321  and  _324
REMARK  136  A    between atoms: _324  and  _325
REMARK  137  A    between atoms: _328  and  _330
REMARK  138  A    between atoms: _330  and  _331
REMARK  139  A    between atoms: _330  and  _333
REMARK  140  A    between atoms: _333  and  _334
REMARK  141  A    between atoms: _339  and  _340
REMARK  142  A    between atoms: _342  and  _344
REMARK  143  A    between atoms: _344  and  _345
REMARK  144  A    between atoms: _344  and  _347
REMARK  145  A    between atoms: _347  and  _348
REMARK  146  A    between atoms: _348  and  _349
REMARK  147  A    between atoms: _349  and  _350
REMARK  148  A    between atoms: _350  and  _351
REMARK                            x       y       z     vdW  Elec       q    Type
REMARK                         _______ _______ _______ _____ _____    ______ ____
ROOT
ATOM      1  O   HOH     1      -2.515  -0.230  -3.233  0.00  0.00    +0.000 OA
ENDROOT
TORSDOF 0
REMARK  Name = ../refined-set-2016/3f1a/3f1a_pocket.pdb
REMARK  148 active torsions:
REMARK  status: ('A' for Active; 'I' for Inactive)
REMARK    1  A    between atoms: _1  and  _3
REMARK    2  A    between atoms: _3  and  _4
REMARK    3  A    between atoms: _3  and  _6
REMARK    4  A    between atoms: _6  and  _7
REMARK    5  A    between atoms: _13  and  _15
REMARK    6  A    between atoms: _15  and  _16
REMARK    7  A    between atoms: _15  and  _18
REMARK    8  A    between atoms: _18  and  _19
REMARK    9  A    between atoms: _22  and  _24
REMARK   10  A    between atoms: _24  and  _25
REMARK   11  A    between atoms: _27  and  _29
REMARK   12  A    between atoms: _29  and  _30
REMARK   13  A    between atoms: _32  and  _34
REMARK   14  A    between atoms: _34  and  _35
REMARK   15  A    between atoms: _34  and  _37
REMARK   16  A    between atoms: _35  and  _36
REMARK   17  A    between atoms: _35  and  _41
REMARK   18  A    between atoms: _36  and  CA_356
REMARK   19  A    between atoms: _37  and  _38
REMARK   20  A    between atoms: _41  and  _43
REMARK   21  A    between atoms: _43  and  _44
REMARK   22  A    between atoms: _43  and  _46
REMARK   23  A    between atoms: _46  and  _47
REMARK   24  A    between atoms: _50  and  _52
REMARK   25  A    between atoms: _52  and  _53
REMARK   26  A    between atoms: _56  and  _58
REMARK   27  A    between atoms: _58  and  _59
REMARK   28  A    between atoms: _58  and  _61
REMARK   29  A    between atoms: _61  and  _62
REMARK   30  A    between atoms: _67  and  _69
REMARK   31  A    between atoms: _69  and  _70
REMARK   32  A    between atoms: _73  and  _75
REMARK   33  A    between atoms: _75  and  _76
REMARK   34  A    between atoms: _75  and  _78
REMARK   35  A    between atoms: _78  and  _79
REMARK   36  A    between atoms: _85  and  _87
REMARK   37  A    between atoms: _87  and  _88
REMARK   38  A    between atoms: _87  and  _90
REMARK   39  A    between atoms: _90  and  _91
REMARK   40  A    between atoms: _96  and  _98
REMARK   41  A    between atoms: _98  and  _99
REMARK   42  A    between atoms: _98  and  _101
REMARK   43  A    between atoms: _101  and  _102
REMARK   44  A    between atoms: _108  and  _110
REMARK   45  A    between atoms: _110  and  _111
REMARK   46  A    between atoms: _110  and  _113
REMARK   47  A    between atoms: _113  and  _114
REMARK   48  A    between atoms: _117  and  _119
REMARK   49  A    between atoms: _119  and  _120
REMARK   50  A    between atoms: _119  and  _122
REMARK   51  A    between atoms: _122  and  _123
REMARK   52  A    between atoms: _123  and  _124
REMARK   53  A    between atoms: _124  and  _126
REMARK   54  A    between atoms: _126  and  CA_356
REMARK   55  A    between atoms: _127  and  _129
REMARK   56  A    between atoms: _129  and  _130
REMARK   57  A    between atoms: _129  and  _132
REMARK   58  A    between atoms: _132  and  _133
REMARK   59  A    between atoms: _143  and  _145
REMARK   60  A    between atoms: _145  and  _146
REMARK   61  A    between atoms: _145  and  _148
REMARK   62  A    between atoms: _148  and  _149
REMARK   63  A    between atoms: _152  and  _154
REMARK   64  A    between atoms: _154  and  _155
REMARK   65  A    between atoms: _154  and  _157
REMARK   66  A    between atoms: _157  and  _158
REMARK   67  A    between atoms: _163  and  _165
REMARK   68  A    between atoms: _165  and  _166
REMARK   69  A    between atoms: _165  and  _168
REMARK   70  A    between atoms: _168  and  _169
REMARK   71  A    between atoms: _172  and  _174
REMARK   72  A    between atoms: _174  and  _175
REMARK   73  A    between atoms: _174  and  _177
REMARK   74  A    between atoms: _177  and  _178
REMARK   75  A    between atoms: _181  and  _183
REMARK   76  A    between atoms: _183  and  _184
REMARK   77  A    between atoms: _187  and  _189
REMARK   78  A    between atoms: _189  and  _190
REMARK   79  A    between atoms: _189  and  _192
REMARK   80  A    between atoms: _195  and  _197
REMARK   81  A    between atoms: _197  and  _198
REMARK   82  A    between atoms: _197  and  _200
REMARK   83  A    between atoms: _200  and  _201
REMARK   84  A    between atoms: _205  and  ZN_355
REMARK   85  A    between atoms: _206  and  _208
REMARK   86  A    between atoms: _208  and  _209
REMARK   87  A    between atoms: _208  and  _211
REMARK   88  A    between atoms: _211  and  _212
REMARK   89  A    between atoms: _212  and  _213
REMARK   90  A    between atoms: _216  and  _218
REMARK   91  A    between atoms: _218  and  _219
REMARK   92  A    between atoms: _218  and  _221
REMARK   93  A    between atoms: _221  and  _222
REMARK   94  A    between atoms: _225  and  _227
REMARK   95  A    between atoms: _227  and  _228
REMARK   96  A    between atoms: _227  and  _230
REMARK   97  A    between atoms: _230  and  _231
REMARK   98  A    between atoms: _235  and  ZN_355
REMARK   99  A    between atoms: _236  and  _238
REMARK  100  A    between atoms: _238  and  _239
REMARK  101  A    between atoms: _238  and  _241
REMARK  102  A    between atoms: _241  and  _242
REMARK  103  A    between atoms: _244  and  _246
REMARK  104  A    between atoms: _246  and  _247
REMARK  105  A    between atoms: _246  and  _249
REMARK  106  A    between atoms: _249  and  _250
REMARK  107  A    between atoms: _253  and  _255
REMARK  108  A    between atoms: _255  and  _256
REMARK  109  A    between atoms: _258  and  _260
REMARK  110  A    between atoms: _260  and  _261
REMARK  111  A    between atoms: _260  and  _263
REMARK  112  A    between atoms: _263  and  _264
REMARK  113  A    between atoms: _268  and  ZN_355
REMARK  114  A    between atoms: _269  and  _271
REMARK  115  A    between atoms: _271  and  _272
REMARK  116  A    between atoms: _271  and  _274
REMARK  117  A    between atoms: _274  and  _275
REMARK  118  A    between atoms: _277  and  _279
REMARK  119  A    between atoms: _279  and  _280
REMARK  120  A    between atoms: _283  and  _285
REMARK  121  A    between atoms: _285  and  _286
REMARK  122  A    between atoms: _285  and  _288
REMARK  123  A    between atoms: _291  and  _293
REMARK  124  A    between atoms: _293  and  _294
REMARK  125  A    between atoms: _293  and  _296
REMARK  126  A    between atoms: _296  and  _297
REMARK  127  A    between atoms: _297  and  _298
REMARK  128  A    between atoms: _300  and  _302
REMARK  129  A    between atoms: _302  and  _303
REMARK  130  A    between atoms: _302  and  _305
REMARK  131  A    between atoms: _305  and  _306
REMARK  132  A    between atoms: _313  and  _314
REMARK  133  A    between atoms: _319  and  _321
REMARK  134  A    between atoms: _321  and  _322
REMARK  135  A    between atoms: _321  and  _324
REMARK  136  A    between atoms: _324  and  _325
REMARK  137  A    between atoms: _328  and  _330
REMARK  138  A    between atoms: _330  and  _331
REMARK  139  A    between atoms: _330  and  _333
REMARK  140  A    between atoms: _333  and  _334
REMARK  141  A    between atoms: _339  and  _340
REMARK  142  A    between atoms: _342  and  _344
REMARK  143  A    between atoms: _344  and  _345
REMARK  144  A    between atoms: _344  and  _347
REMARK  145  A    between atoms: _347  and  _348
REMARK  146  A    between atoms: _348  and  _349
REMARK  147  A    between atoms: _349  and  _350
REMARK  148  A    between atoms: _350  and  _351
REMARK                            x       y       z     vdW  Elec       q    Type
REMARK                         _______ _______ _______ _____ _____    ______ ____
ROOT
ATOM      1  O   HOH     1       2.268 -14.188  -2.885  0.00  0.00    +0.000 OA
ENDROOT
TORSDOF 0
REMARK  Name = ../refined-set-2016/3f1a/3f1a_pocket.pdb
REMARK  148 active torsions:
REMARK  status: ('A' for Active; 'I' for Inactive)
REMARK    1  A    between atoms: _1  and  _3
REMARK    2  A    between atoms: _3  and  _4
REMARK    3  A    between atoms: _3  and  _6
REMARK    4  A    between atoms: _6  and  _7
REMARK    5  A    between atoms: _13  and  _15
REMARK    6  A    between atoms: _15  and  _16
REMARK    7  A    between atoms: _15  and  _18
REMARK    8  A    between atoms: _18  and  _19
REMARK    9  A    between atoms: _22  and  _24
REMARK   10  A    between atoms: _24  and  _25
REMARK   11  A    between atoms: _27  and  _29
REMARK   12  A    between atoms: _29  and  _30
REMARK   13  A    between atoms: _32  and  _34
REMARK   14  A    between atoms: _34  and  _35
REMARK   15  A    between atoms: _34  and  _37
REMARK   16  A    between atoms: _35  and  _36
REMARK   17  A    between atoms: _35  and  _41
REMARK   18  A    between atoms: _36  and  CA_356
REMARK   19  A    between atoms: _37  and  _38
REMARK   20  A    between atoms: _41  and  _43
REMARK   21  A    between atoms: _43  and  _44
REMARK   22  A    between atoms: _43  and  _46
REMARK   23  A    between atoms: _46  and  _47
REMARK   24  A    between atoms: _50  and  _52
REMARK   25  A    between atoms: _52  and  _53
REMARK   26  A    between atoms: _56  and  _58
REMARK   27  A    between atoms: _58  and  _59
REMARK   28  A    between atoms: _58  and  _61
REMARK   29  A    between atoms: _61  and  _62
REMARK   30  A    between atoms: _67  and  _69
REMARK   31  A    between atoms: _69  and  _70
REMARK   32  A    between atoms: _73  and  _75
REMARK   33  A    between atoms: _75  and  _76
REMARK   34  A    between atoms: _75  and  _78
REMARK   35  A    between atoms: _78  and  _79
REMARK   36  A    between atoms: _85  and  _87
REMARK   37  A    between atoms: _87  and  _88
REMARK   38  A    between atoms: _87  and  _90
REMARK   39  A    between atoms: _90  and  _91
REMARK   40  A    between atoms: _96  and  _98
REMARK   41  A    between atoms: _98  and  _99
REMARK   42  A    between atoms: _98  and  _101
REMARK   43  A    between atoms: _101  and  _102
REMARK   44  A    between atoms: _108  and  _110
REMARK   45  A    between atoms: _110  and  _111
REMARK   46  A    between atoms: _110  and  _113
REMARK   47  A    between atoms: _113  and  _114
REMARK   48  A    between atoms: _117  and  _119
REMARK   49  A    between atoms: _119  and  _120
REMARK   50  A    between atoms: _119  and  _122
REMARK   51  A    between atoms: _122  and  _123
REMARK   52  A    between atoms: _123  and  _124
REMARK   53  A    between atoms: _124  and  _126
REMARK   54  A    between atoms: _126  and  CA_356
REMARK   55  A    between atoms: _127  and  _129
REMARK   56  A    between atoms: _129  and  _130
REMARK   57  A    between atoms: _129  and  _132
REMARK   58  A    between atoms: _132  and  _133
REMARK   59  A    between atoms: _143  and  _145
REMARK   60  A    between atoms: _145  and  _146
REMARK   61  A    between atoms: _145  and  _148
REMARK   62  A    between atoms: _148  and  _149
REMARK   63  A    between atoms: _152  and  _154
REMARK   64  A    between atoms: _154  and  _155
REMARK   65  A    between atoms: _154  and  _157
REMARK   66  A    between atoms: _157  and  _158
REMARK   67  A    between atoms: _163  and  _165
REMARK   68  A    between atoms: _165  and  _166
REMARK   69  A    between atoms: _165  and  _168
REMARK   70  A    between atoms: _168  and  _169
REMARK   71  A    between atoms: _172  and  _174
REMARK   72  A    between atoms: _174  and  _175
REMARK   73  A    between atoms: _174  and  _177
REMARK   74  A    between atoms: _177  and  _178
REMARK   75  A    between atoms: _181  and  _183
REMARK   76  A    between atoms: _183  and  _184
REMARK   77  A    between atoms: _187  and  _189
REMARK   78  A    between atoms: _189  and  _190
REMARK   79  A    between atoms: _189  and  _192
REMARK   80  A    between atoms: _195  and  _197
REMARK   81  A    between atoms: _197  and  _198
REMARK   82  A    between atoms: _197  and  _200
REMARK   83  A    between atoms: _200  and  _201
REMARK   84  A    between atoms: _205  and  ZN_355
REMARK   85  A    between atoms: _206  and  _208
REMARK   86  A    between atoms: _208  and  _209
REMARK   87  A    between atoms: _208  and  _211
REMARK   88  A    between atoms: _211  and  _212
REMARK   89  A    between atoms: _212  and  _213
REMARK   90  A    between atoms: _216  and  _218
REMARK   91  A    between atoms: _218  and  _219
REMARK   92  A    between atoms: _218  and  _221
REMARK   93  A    between atoms: _221  and  _222
REMARK   94  A    between atoms: _225  and  _227
REMARK   95  A    between atoms: _227  and  _228
REMARK   96  A    between atoms: _227  and  _230
REMARK   97  A    between atoms: _230  and  _231
REMARK   98  A    between atoms: _235  and  ZN_355
REMARK   99  A    between atoms: _236  and  _238
REMARK  100  A    between atoms: _238  and  _239
REMARK  101  A    between atoms: _238  and  _241
REMARK  102  A    between atoms: _241  and  _242
REMARK  103  A    between atoms: _244  and  _246
REMARK  104  A    between atoms: _246  and  _247
REMARK  105  A    between atoms: _246  and  _249
REMARK  106  A    between atoms: _249  and  _250
REMARK  107  A    between atoms: _253  and  _255
REMARK  108  A    between atoms: _255  and  _256
REMARK  109  A    between atoms: _258  and  _260
REMARK  110  A    between atoms: _260  and  _261
REMARK  111  A    between atoms: _260  and  _263
REMARK  112  A    between atoms: _263  and  _264
REMARK  113  A    between atoms: _268  and  ZN_355
REMARK  114  A    between atoms: _269  and  _271
REMARK  115  A    between atoms: _271  and  _272
REMARK  116  A    between atoms: _271  and  _274
REMARK  117  A    between atoms: _274  and  _275
REMARK  118  A    between atoms: _277  and  _279
REMARK  119  A    between atoms: _279  and  _280
REMARK  120  A    between atoms: _283  and  _285
REMARK  121  A    between atoms: _285  and  _286
REMARK  122  A    between atoms: _285  and  _288
REMARK  123  A    between atoms: _291  and  _293
REMARK  124  A    between atoms: _293  and  _294
REMARK  125  A    between atoms: _293  and  _296
REMARK  126  A    between atoms: _296  and  _297
REMARK  127  A    between atoms: _297  and  _298
REMARK  128  A    between atoms: _300  and  _302
REMARK  129  A    between atoms: _302  and  _303
REMARK  130  A    between atoms: _302  and  _305
REMARK  131  A    between atoms: _305  and  _306
REMARK  132  A    between atoms: _313  and  _314
REMARK  133  A    between atoms: _319  and  _321
REMARK  134  A    between atoms: _321  and  _322
REMARK  135  A    between atoms: _321  and  _324
REMARK  136  A    between atoms: _324  and  _325
REMARK  137  A    between atoms: _328  and  _330
REMARK  138  A    between atoms: _330  and  _331
REMARK  139  A    between atoms: _330  and  _333
REMARK  140  A    between atoms: _333  and  _334
REMARK  141  A    between atoms: _339  and  _340
REMARK  142  A    between atoms: _342  and  _344
REMARK  143  A    between atoms: _344  and  _345
REMARK  144  A    between atoms: _344  and  _347
REMARK  145  A    between atoms: _347  and  _348
REMARK  146  A    between atoms: _348  and  _349
REMARK  147  A    between atoms: _349  and  _350
REMARK  148  A    between atoms: _350  and  _351
REMARK                            x       y       z     vdW  Elec       q    Type
REMARK                         _______ _______ _______ _____ _____    ______ ____
ROOT
ATOM      1  O   HOH     1      -3.419 -13.684  -5.671  0.00  0.00    +0.000 OA
ENDROOT
TORSDOF 0
REMARK  Name = ../refined-set-2016/3f1a/3f1a_pocket.pdb
REMARK  148 active torsions:
REMARK  status: ('A' for Active; 'I' for Inactive)
REMARK    1  A    between atoms: _1  and  _3
REMARK    2  A    between atoms: _3  and  _4
REMARK    3  A    between atoms: _3  and  _6
REMARK    4  A    between atoms: _6  and  _7
REMARK    5  A    between atoms: _13  and  _15
REMARK    6  A    between atoms: _15  and  _16
REMARK    7  A    between atoms: _15  and  _18
REMARK    8  A    between atoms: _18  and  _19
REMARK    9  A    between atoms: _22  and  _24
REMARK   10  A    between atoms: _24  and  _25
REMARK   11  A    between atoms: _27  and  _29
REMARK   12  A    between atoms: _29  and  _30
REMARK   13  A    between atoms: _32  and  _34
REMARK   14  A    between atoms: _34  and  _35
REMARK   15  A    between atoms: _34  and  _37
REMARK   16  A    between atoms: _35  and  _36
REMARK   17  A    between atoms: _35  and  _41
REMARK   18  A    between atoms: _36  and  CA_356
REMARK   19  A    between atoms: _37  and  _38
REMARK   20  A    between atoms: _41  and  _43
REMARK   21  A    between atoms: _43  and  _44
REMARK   22  A    between atoms: _43  and  _46
REMARK   23  A    between atoms: _46  and  _47
REMARK   24  A    between atoms: _50  and  _52
REMARK   25  A    between atoms: _52  and  _53
REMARK   26  A    between atoms: _56  and  _58
REMARK   27  A    between atoms: _58  and  _59
REMARK   28  A    between atoms: _58  and  _61
REMARK   29  A    between atoms: _61  and  _62
REMARK   30  A    between atoms: _67  and  _69
REMARK   31  A    between atoms: _69  and  _70
REMARK   32  A    between atoms: _73  and  _75
REMARK   33  A    between atoms: _75  and  _76
REMARK   34  A    between atoms: _75  and  _78
REMARK   35  A    between atoms: _78  and  _79
REMARK   36  A    between atoms: _85  and  _87
REMARK   37  A    between atoms: _87  and  _88
REMARK   38  A    between atoms: _87  and  _90
REMARK   39  A    between atoms: _90  and  _91
REMARK   40  A    between atoms: _96  and  _98
REMARK   41  A    between atoms: _98  and  _99
REMARK   42  A    between atoms: _98  and  _101
REMARK   43  A    between atoms: _101  and  _102
REMARK   44  A    between atoms: _108  and  _110
REMARK   45  A    between atoms: _110  and  _111
REMARK   46  A    between atoms: _110  and  _113
REMARK   47  A    between atoms: _113  and  _114
REMARK   48  A    between atoms: _117  and  _119
REMARK   49  A    between atoms: _119  and  _120
REMARK   50  A    between atoms: _119  and  _122
REMARK   51  A    between atoms: _122  and  _123
REMARK   52  A    between atoms: _123  and  _124
REMARK   53  A    between atoms: _124  and  _126
REMARK   54  A    between atoms: _126  and  CA_356
REMARK   55  A    between atoms: _127  and  _129
REMARK   56  A    between atoms: _129  and  _130
REMARK   57  A    between atoms: _129  and  _132
REMARK   58  A    between atoms: _132  and  _133
REMARK   59  A    between atoms: _143  and  _145
REMARK   60  A    between atoms: _145  and  _146
REMARK   61  A    between atoms: _145  and  _148
REMARK   62  A    between atoms: _148  and  _149
REMARK   63  A    between atoms: _152  and  _154
REMARK   64  A    between atoms: _154  and  _155
REMARK   65  A    between atoms: _154  and  _157
REMARK   66  A    between atoms: _157  and  _158
REMARK   67  A    between atoms: _163  and  _165
REMARK   68  A    between atoms: _165  and  _166
REMARK   69  A    between atoms: _165  and  _168
REMARK   70  A    between atoms: _168  and  _169
REMARK   71  A    between atoms: _172  and  _174
REMARK   72  A    between atoms: _174  and  _175
REMARK   73  A    between atoms: _174  and  _177
REMARK   74  A    between atoms: _177  and  _178
REMARK   75  A    between atoms: _181  and  _183
REMARK   76  A    between atoms: _183  and  _184
REMARK   77  A    between atoms: _187  and  _189
REMARK   78  A    between atoms: _189  and  _190
REMARK   79  A    between atoms: _189  and  _192
REMARK   80  A    between atoms: _195  and  _197
REMARK   81  A    between atoms: _197  and  _198
REMARK   82  A    between atoms: _197  and  _200
REMARK   83  A    between atoms: _200  and  _201
REMARK   84  A    between atoms: _205  and  ZN_355
REMARK   85  A    between atoms: _206  and  _208
REMARK   86  A    between atoms: _208  and  _209
REMARK   87  A    between atoms: _208  and  _211
REMARK   88  A    between atoms: _211  and  _212
REMARK   89  A    between atoms: _212  and  _213
REMARK   90  A    between atoms: _216  and  _218
REMARK   91  A    between atoms: _218  and  _219
REMARK   92  A    between atoms: _218  and  _221
REMARK   93  A    between atoms: _221  and  _222
REMARK   94  A    between atoms: _225  and  _227
REMARK   95  A    between atoms: _227  and  _228
REMARK   96  A    between atoms: _227  and  _230
REMARK   97  A    between atoms: _230  and  _231
REMARK   98  A    between atoms: _235  and  ZN_355
REMARK   99  A    between atoms: _236  and  _238
REMARK  100  A    between atoms: _238  and  _239
REMARK  101  A    between atoms: _238  and  _241
REMARK  102  A    between atoms: _241  and  _242
REMARK  103  A    between atoms: _244  and  _246
REMARK  104  A    between atoms: _246  and  _247
REMARK  105  A    between atoms: _246  and  _249
REMARK  106  A    between atoms: _249  and  _250
REMARK  107  A    between atoms: _253  and  _255
REMARK  108  A    between atoms: _255  and  _256
REMARK  109  A    between atoms: _258  and  _260
REMARK  110  A    between atoms: _260  and  _261
REMARK  111  A    between atoms: _260  and  _263
REMARK  112  A    between atoms: _263  and  _264
REMARK  113  A    between atoms: _268  and  ZN_355
REMARK  114  A    between atoms: _269  and  _271
REMARK  115  A    between atoms: _271  and  _272
REMARK  116  A    between atoms: _271  and  _274
REMARK  117  A    between atoms: _274  and  _275
REMARK  118  A    between atoms: _277  and  _279
REMARK  119  A    between atoms: _279  and  _280
REMARK  120  A    between atoms: _283  and  _285
REMARK  121  A    between atoms: _285  and  _286
REMARK  122  A    between atoms: _285  and  _288
REMARK  123  A    between atoms: _291  and  _293
REMARK  124  A    between atoms: _293  and  _294
REMARK  125  A    between atoms: _293  and  _296
REMARK  126  A    between atoms: _296  and  _297
REMARK  127  A    between atoms: _297  and  _298
REMARK  128  A    between atoms: _300  and  _302
REMARK  129  A    between atoms: _302  and  _303
REMARK  130  A    between atoms: _302  and  _305
REMARK  131  A    between atoms: _305  and  _306
REMARK  132  A    between atoms: _313  and  _314
REMARK  133  A    between atoms: _319  and  _321
REMARK  134  A    between atoms: _321  and  _322
REMARK  135  A    between atoms: _321  and  _324
REMARK  136  A    between atoms: _324  and  _325
REMARK  137  A    between atoms: _328  and  _330
REMARK  138  A    between atoms: _330  and  _331
REMARK  139  A    between atoms: _330  and  _333
REMARK  140  A    between atoms: _333  and  _334
REMARK  141  A    between atoms: _339  and  _340
REMARK  142  A    between atoms: _342  and  _344
REMARK  143  A    between atoms: _344  and  _345
REMARK  144  A    between atoms: _344  and  _347
REMARK  145  A    between atoms: _347  and  _348
REMARK  146  A    between atoms: _348  and  _349
REMARK  147  A    between atoms: _349  and  _350
REMARK  148  A    between atoms: _350  and  _351
REMARK                            x       y       z     vdW  Elec       q    Type
REMARK                         _______ _______ _______ _____ _____    ______ ____
ROOT
ATOM      1  O   HOH     1       0.036  -8.367  -1.933  0.00  0.00    +0.000 OA
ENDROOT
TORSDOF 0
REMARK  Name = ../refined-set-2016/3f1a/3f1a_pocket.pdb
REMARK  148 active torsions:
REMARK  status: ('A' for Active; 'I' for Inactive)
REMARK    1  A    between atoms: _1  and  _3
REMARK    2  A    between atoms: _3  and  _4
REMARK    3  A    between atoms: _3  and  _6
REMARK    4  A    between atoms: _6  and  _7
REMARK    5  A    between atoms: _13  and  _15
REMARK    6  A    between atoms: _15  and  _16
REMARK    7  A    between atoms: _15  and  _18
REMARK    8  A    between atoms: _18  and  _19
REMARK    9  A    between atoms: _22  and  _24
REMARK   10  A    between atoms: _24  and  _25
REMARK   11  A    between atoms: _27  and  _29
REMARK   12  A    between atoms: _29  and  _30
REMARK   13  A    between atoms: _32  and  _34
REMARK   14  A    between atoms: _34  and  _35
REMARK   15  A    between atoms: _34  and  _37
REMARK   16  A    between atoms: _35  and  _36
REMARK   17  A    between atoms: _35  and  _41
REMARK   18  A    between atoms: _36  and  CA_356
REMARK   19  A    between atoms: _37  and  _38
REMARK   20  A    between atoms: _41  and  _43
REMARK   21  A    between atoms: _43  and  _44
REMARK   22  A    between atoms: _43  and  _46
REMARK   23  A    between atoms: _46  and  _47
REMARK   24  A    between atoms: _50  and  _52
REMARK   25  A    between atoms: _52  and  _53
REMARK   26  A    between atoms: _56  and  _58
REMARK   27  A    between atoms: _58  and  _59
REMARK   28  A    between atoms: _58  and  _61
REMARK   29  A    between atoms: _61  and  _62
REMARK   30  A    between atoms: _67  and  _69
REMARK   31  A    between atoms: _69  and  _70
REMARK   32  A    between atoms: _73  and  _75
REMARK   33  A    between atoms: _75  and  _76
REMARK   34  A    between atoms: _75  and  _78
REMARK   35  A    between atoms: _78  and  _79
REMARK   36  A    between atoms: _85  and  _87
REMARK   37  A    between atoms: _87  and  _88
REMARK   38  A    between atoms: _87  and  _90
REMARK   39  A    between atoms: _90  and  _91
REMARK   40  A    between atoms: _96  and  _98
REMARK   41  A    between atoms: _98  and  _99
REMARK   42  A    between atoms: _98  and  _101
REMARK   43  A    between atoms: _101  and  _102
REMARK   44  A    between atoms: _108  and  _110
REMARK   45  A    between atoms: _110  and  _111
REMARK   46  A    between atoms: _110  and  _113
REMARK   47  A    between atoms: _113  and  _114
REMARK   48  A    between atoms: _117  and  _119
REMARK   49  A    between atoms: _119  and  _120
REMARK   50  A    between atoms: _119  and  _122
REMARK   51  A    between atoms: _122  and  _123
REMARK   52  A    between atoms: _123  and  _124
REMARK   53  A    between atoms: _124  and  _126
REMARK   54  A    between atoms: _126  and  CA_356
REMARK   55  A    between atoms: _127  and  _129
REMARK   56  A    between atoms: _129  and  _130
REMARK   57  A    between atoms: _129  and  _132
REMARK   58  A    between atoms: _132  and  _133
REMARK   59  A    between atoms: _143  and  _145
REMARK   60  A    between atoms: _145  and  _146
REMARK   61  A    between atoms: _145  and  _148
REMARK   62  A    between atoms: _148  and  _149
REMARK   63  A    between atoms: _152  and  _154
REMARK   64  A    between atoms: _154  and  _155
REMARK   65  A    between atoms: _154  and  _157
REMARK   66  A    between atoms: _157  and  _158
REMARK   67  A    between atoms: _163  and  _165
REMARK   68  A    between atoms: _165  and  _166
REMARK   69  A    between atoms: _165  and  _168
REMARK   70  A    between atoms: _168  and  _169
REMARK   71  A    between atoms: _172  and  _174
REMARK   72  A    between atoms: _174  and  _175
REMARK   73  A    between atoms: _174  and  _177
REMARK   74  A    between atoms: _177  and  _178
REMARK   75  A    between atoms: _181  and  _183
REMARK   76  A    between atoms: _183  and  _184
REMARK   77  A    between atoms: _187  and  _189
REMARK   78  A    between atoms: _189  and  _190
REMARK   79  A    between atoms: _189  and  _192
REMARK   80  A    between atoms: _195  and  _197
REMARK   81  A    between atoms: _197  and  _198
REMARK   82  A    between atoms: _197  and  _200
REMARK   83  A    between atoms: _200  and  _201
REMARK   84  A    between atoms: _205  and  ZN_355
REMARK   85  A    between atoms: _206  and  _208
REMARK   86  A    between atoms: _208  and  _209
REMARK   87  A    between atoms: _208  and  _211
REMARK   88  A    between atoms: _211  and  _212
REMARK   89  A    between atoms: _212  and  _213
REMARK   90  A    between atoms: _216  and  _218
REMARK   91  A    between atoms: _218  and  _219
REMARK   92  A    between atoms: _218  and  _221
REMARK   93  A    between atoms: _221  and  _222
REMARK   94  A    between atoms: _225  and  _227
REMARK   95  A    between atoms: _227  and  _228
REMARK   96  A    between atoms: _227  and  _230
REMARK   97  A    between atoms: _230  and  _231
REMARK   98  A    between atoms: _235  and  ZN_355
REMARK   99  A    between atoms: _236  and  _238
REMARK  100  A    between atoms: _238  and  _239
REMARK  101  A    between atoms: _238  and  _241
REMARK  102  A    between atoms: _241  and  _242
REMARK  103  A    between atoms: _244  and  _246
REMARK  104  A    between atoms: _246  and  _247
REMARK  105  A    between atoms: _246  and  _249
REMARK  106  A    between atoms: _249  and  _250
REMARK  107  A    between atoms: _253  and  _255
REMARK  108  A    between atoms: _255  and  _256
REMARK  109  A    between atoms: _258  and  _260
REMARK  110  A    between atoms: _260  and  _261
REMARK  111  A    between atoms: _260  and  _263
REMARK  112  A    between atoms: _263  and  _264
REMARK  113  A    between atoms: _268  and  ZN_355
REMARK  114  A    between atoms: _269  and  _271
REMARK  115  A    between atoms: _271  and  _272
REMARK  116  A    between atoms: _271  and  _274
REMARK  117  A    between atoms: _274  and  _275
REMARK  118  A    between atoms: _277  and  _279
REMARK  119  A    between atoms: _279  and  _280
REMARK  120  A    between atoms: _283  and  _285
REMARK  121  A    between atoms: _285  and  _286
REMARK  122  A    between atoms: _285  and  _288
REMARK  123  A    between atoms: _291  and  _293
REMARK  124  A    between atoms: _293  and  _294
REMARK  125  A    between atoms: _293  and  _296
REMARK  126  A    between atoms: _296  and  _297
REMARK  127  A    between atoms: _297  and  _298
REMARK  128  A    between atoms: _300  and  _302
REMARK  129  A    between atoms: _302  and  _303
REMARK  130  A    between atoms: _302  and  _305
REMARK  131  A    between atoms: _305  and  _306
REMARK  132  A    between atoms: _313  and  _314
REMARK  133  A    between atoms: _319  and  _321
REMARK  134  A    between atoms: _321  and  _322
REMARK  135  A    between atoms: _321  and  _324
REMARK  136  A    between atoms: _324  and  _325
REMARK  137  A    between atoms: _328  and  _330
REMARK  138  A    between atoms: _330  and  _331
REMARK  139  A    between atoms: _330  and  _333
REMARK  140  A    between atoms: _333  and  _334
REMARK  141  A    between atoms: _339  and  _340
REMARK  142  A    between atoms: _342  and  _344
REMARK  143  A    between atoms: _344  and  _345
REMARK  144  A    between atoms: _344  and  _347
REMARK  145  A    between atoms: _347  and  _348
REMARK  146  A    between atoms: _348  and  _349
REMARK  147  A    between atoms: _349  and  _350
REMARK  148  A    between atoms: _350  and  _351
REMARK                            x       y       z     vdW  Elec       q    Type
REMARK                         _______ _______ _______ _____ _____    ______ ____
ROOT
ATOM      1  O   HOH     1       0.004   1.150   0.000  0.00  0.00    +0.000 OA
ENDROOT
TORSDOF 0
REMARK  Name = ../refined-set-2016/3f1a/3f1a_pocket.pdb
REMARK  148 active torsions:
REMARK  status: ('A' for Active; 'I' for Inactive)
REMARK    1  A    between atoms: _1  and  _3
REMARK    2  A    between atoms: _3  and  _4
REMARK    3  A    between atoms: _3  and  _6
REMARK    4  A    between atoms: _6  and  _7
REMARK    5  A    between atoms: _13  and  _15
REMARK    6  A    between atoms: _15  and  _16
REMARK    7  A    between atoms: _15  and  _18
REMARK    8  A    between atoms: _18  and  _19
REMARK    9  A    between atoms: _22  and  _24
REMARK   10  A    between atoms: _24  and  _25
REMARK   11  A    between atoms: _27  and  _29
REMARK   12  A    between atoms: _29  and  _30
REMARK   13  A    between atoms: _32  and  _34
REMARK   14  A    between atoms: _34  and  _35
REMARK   15  A    between atoms: _34  and  _37
REMARK   16  A    between atoms: _35  and  _36
REMARK   17  A    between atoms: _35  and  _41
REMARK   18  A    between atoms: _36  and  CA_356
REMARK   19  A    between atoms: _37  and  _38
REMARK   20  A    between atoms: _41  and  _43
REMARK   21  A    between atoms: _43  and  _44
REMARK   22  A    between atoms: _43  and  _46
REMARK   23  A    between atoms: _46  and  _47
REMARK   24  A    between atoms: _50  and  _52
REMARK   25  A    between atoms: _52  and  _53
REMARK   26  A    between atoms: _56  and  _58
REMARK   27  A    between atoms: _58  and  _59
REMARK   28  A    between atoms: _58  and  _61
REMARK   29  A    between atoms: _61  and  _62
REMARK   30  A    between atoms: _67  and  _69
REMARK   31  A    between atoms: _69  and  _70
REMARK   32  A    between atoms: _73  and  _75
REMARK   33  A    between atoms: _75  and  _76
REMARK   34  A    between atoms: _75  and  _78
REMARK   35  A    between atoms: _78  and  _79
REMARK   36  A    between atoms: _85  and  _87
REMARK   37  A    between atoms: _87  and  _88
REMARK   38  A    between atoms: _87  and  _90
REMARK   39  A    between atoms: _90  and  _91
REMARK   40  A    between atoms: _96  and  _98
REMARK   41  A    between atoms: _98  and  _99
REMARK   42  A    between atoms: _98  and  _101
REMARK   43  A    between atoms: _101  and  _102
REMARK   44  A    between atoms: _108  and  _110
REMARK   45  A    between atoms: _110  and  _111
REMARK   46  A    between atoms: _110  and  _113
REMARK   47  A    between atoms: _113  and  _114
REMARK   48  A    between atoms: _117  and  _119
REMARK   49  A    between atoms: _119  and  _120
REMARK   50  A    between atoms: _119  and  _122
REMARK   51  A    between atoms: _122  and  _123
REMARK   52  A    between atoms: _123  and  _124
REMARK   53  A    between atoms: _124  and  _126
REMARK   54  A    between atoms: _126  and  CA_356
REMARK   55  A    between atoms: _127  and  _129
REMARK   56  A    between atoms: _129  and  _130
REMARK   57  A    between atoms: _129  and  _132
REMARK   58  A    between atoms: _132  and  _133
REMARK   59  A    between atoms: _143  and  _145
REMARK   60  A    between atoms: _145  and  _146
REMARK   61  A    between atoms: _145  and  _148
REMARK   62  A    between atoms: _148  and  _149
REMARK   63  A    between atoms: _152  and  _154
REMARK   64  A    between atoms: _154  and  _155
REMARK   65  A    between atoms: _154  and  _157
REMARK   66  A    between atoms: _157  and  _158
REMARK   67  A    between atoms: _163  and  _165
REMARK   68  A    between atoms: _165  and  _166
REMARK   69  A    between atoms: _165  and  _168
REMARK   70  A    between atoms: _168  and  _169
REMARK   71  A    between atoms: _172  and  _174
REMARK   72  A    between atoms: _174  and  _175
REMARK   73  A    between atoms: _174  and  _177
REMARK   74  A    between atoms: _177  and  _178
REMARK   75  A    between atoms: _181  and  _183
REMARK   76  A    between atoms: _183  and  _184
REMARK   77  A    between atoms: _187  and  _189
REMARK   78  A    between atoms: _189  and  _190
REMARK   79  A    between atoms: _189  and  _192
REMARK   80  A    between atoms: _195  and  _197
REMARK   81  A    between atoms: _197  and  _198
REMARK   82  A    between atoms: _197  and  _200
REMARK   83  A    between atoms: _200  and  _201
REMARK   84  A    between atoms: _205  and  ZN_355
REMARK   85  A    between atoms: _206  and  _208
REMARK   86  A    between atoms: _208  and  _209
REMARK   87  A    between atoms: _208  and  _211
REMARK   88  A    between atoms: _211  and  _212
REMARK   89  A    between atoms: _212  and  _213
REMARK   90  A    between atoms: _216  and  _218
REMARK   91  A    between atoms: _218  and  _219
REMARK   92  A    between atoms: _218  and  _221
REMARK   93  A    between atoms: _221  and  _222
REMARK   94  A    between atoms: _225  and  _227
REMARK   95  A    between atoms: _227  and  _228
REMARK   96  A    between atoms: _227  and  _230
REMARK   97  A    between atoms: _230  and  _231
REMARK   98  A    between atoms: _235  and  ZN_355
REMARK   99  A    between atoms: _236  and  _238
REMARK  100  A    between atoms: _238  and  _239
REMARK  101  A    between atoms: _238  and  _241
REMARK  102  A    between atoms: _241  and  _242
REMARK  103  A    between atoms: _244  and  _246
REMARK  104  A    between atoms: _246  and  _247
REMARK  105  A    between atoms: _246  and  _249
REMARK  106  A    between atoms: _249  and  _250
REMARK  107  A    between atoms: _253  and  _255
REMARK  108  A    between atoms: _255  and  _256
REMARK  109  A    between atoms: _258  and  _260
REMARK  110  A    between atoms: _260  and  _261
REMARK  111  A    between atoms: _260  and  _263
REMARK  112  A    between atoms: _263  and  _264
REMARK  113  A    between atoms: _268  and  ZN_355
REMARK  114  A    between atoms: _269  and  _271
REMARK  115  A    between atoms: _271  and  _272
REMARK  116  A    between atoms: _271  and  _274
REMARK  117  A    between atoms: _274  and  _275
REMARK  118  A    between atoms: _277  and  _279
REMARK  119  A    between atoms: _279  and  _280
REMARK  120  A    between atoms: _283  and  _285
REMARK  121  A    between atoms: _285  and  _286
REMARK  122  A    between atoms: _285  and  _288
REMARK  123  A    between atoms: _291  and  _293
REMARK  124  A    between atoms: _293  and  _294
REMARK  125  A    between atoms: _293  and  _296
REMARK  126  A    between atoms: _296  and  _297
REMARK  127  A    between atoms: _297  and  _298
REMARK  128  A    between atoms: _300  and  _302
REMARK  129  A    between atoms: _302  and  _303
REMARK  130  A    between atoms: _302  and  _305
REMARK  131  A    between atoms: _305  and  _306
REMARK  132  A    between atoms: _313  and  _314
REMARK  133  A    between atoms: _319  and  _321
REMARK  134  A    between atoms: _321  and  _322
REMARK  135  A    between atoms: _321  and  _324
REMARK  136  A    between atoms: _324  and  _325
REMARK  137  A    between atoms: _328  and  _330
REMARK  138  A    between atoms: _330  and  _331
REMARK  139  A    between atoms: _330  and  _333
REMARK  140  A    between atoms: _333  and  _334
REMARK  141  A    between atoms: _339  and  _340
REMARK  142  A    between atoms: _342  and  _344
REMARK  143  A    between atoms: _344  and  _345
REMARK  144  A    between atoms: _344  and  _347
REMARK  145  A    between atoms: _347  and  _348
REMARK  146  A    between atoms: _348  and  _349
REMARK  147  A    between atoms: _349  and  _350
REMARK  148  A    between atoms: _350  and  _351
REMARK                            x       y       z     vdW  Elec       q    Type
REMARK                         _______ _______ _______ _____ _____    ______ ____
ROOT
ATOM      1  O   HOH     1      -2.698  -7.223  -1.131  0.00  0.00    +0.000 OA
ENDROOT
TORSDOF 0
REMARK  Name = ../refined-set-2016/3f1a/3f1a_pocket.pdb
REMARK  148 active torsions:
REMARK  status: ('A' for Active; 'I' for Inactive)
REMARK    1  A    between atoms: _1  and  _3
REMARK    2  A    between atoms: _3  and  _4
REMARK    3  A    between atoms: _3  and  _6
REMARK    4  A    between atoms: _6  and  _7
REMARK    5  A    between atoms: _13  and  _15
REMARK    6  A    between atoms: _15  and  _16
REMARK    7  A    between atoms: _15  and  _18
REMARK    8  A    between atoms: _18  and  _19
REMARK    9  A    between atoms: _22  and  _24
REMARK   10  A    between atoms: _24  and  _25
REMARK   11  A    between atoms: _27  and  _29
REMARK   12  A    between atoms: _29  and  _30
REMARK   13  A    between atoms: _32  and  _34
REMARK   14  A    between atoms: _34  and  _35
REMARK   15  A    between atoms: _34  and  _37
REMARK   16  A    between atoms: _35  and  _36
REMARK   17  A    between atoms: _35  and  _41
REMARK   18  A    between atoms: _36  and  CA_356
REMARK   19  A    between atoms: _37  and  _38
REMARK   20  A    between atoms: _41  and  _43
REMARK   21  A    between atoms: _43  and  _44
REMARK   22  A    between atoms: _43  and  _46
REMARK   23  A    between atoms: _46  and  _47
REMARK   24  A    between atoms: _50  and  _52
REMARK   25  A    between atoms: _52  and  _53
REMARK   26  A    between atoms: _56  and  _58
REMARK   27  A    between atoms: _58  and  _59
REMARK   28  A    between atoms: _58  and  _61
REMARK   29  A    between atoms: _61  and  _62
REMARK   30  A    between atoms: _67  and  _69
REMARK   31  A    between atoms: _69  and  _70
REMARK   32  A    between atoms: _73  and  _75
REMARK   33  A    between atoms: _75  and  _76
REMARK   34  A    between atoms: _75  and  _78
REMARK   35  A    between atoms: _78  and  _79
REMARK   36  A    between atoms: _85  and  _87
REMARK   37  A    between atoms: _87  and  _88
REMARK   38  A    between atoms: _87  and  _90
REMARK   39  A    between atoms: _90  and  _91
REMARK   40  A    between atoms: _96  and  _98
REMARK   41  A    between atoms: _98  and  _99
REMARK   42  A    between atoms: _98  and  _101
REMARK   43  A    between atoms: _101  and  _102
REMARK   44  A    between atoms: _108  and  _110
REMARK   45  A    between atoms: _110  and  _111
REMARK   46  A    between atoms: _110  and  _113
REMARK   47  A    between atoms: _113  and  _114
REMARK   48  A    between atoms: _117  and  _119
REMARK   49  A    between atoms: _119  and  _120
REMARK   50  A    between atoms: _119  and  _122
REMARK   51  A    between atoms: _122  and  _123
REMARK   52  A    between atoms: _123  and  _124
REMARK   53  A    between atoms: _124  and  _126
REMARK   54  A    between atoms: _126  and  CA_356
REMARK   55  A    between atoms: _127  and  _129
REMARK   56  A    between atoms: _129  and  _130
REMARK   57  A    between atoms: _129  and  _132
REMARK   58  A    between atoms: _132  and  _133
REMARK   59  A    between atoms: _143  and  _145
REMARK   60  A    between atoms: _145  and  _146
REMARK   61  A    between atoms: _145  and  _148
REMARK   62  A    between atoms: _148  and  _149
REMARK   63  A    between atoms: _152  and  _154
REMARK   64  A    between atoms: _154  and  _155
REMARK   65  A    between atoms: _154  and  _157
REMARK   66  A    between atoms: _157  and  _158
REMARK   67  A    between atoms: _163  and  _165
REMARK   68  A    between atoms: _165  and  _166
REMARK   69  A    between atoms: _165  and  _168
REMARK   70  A    between atoms: _168  and  _169
REMARK   71  A    between atoms: _172  and  _174
REMARK   72  A    between atoms: _174  and  _175
REMARK   73  A    between atoms: _174  and  _177
REMARK   74  A    between atoms: _177  and  _178
REMARK   75  A    between atoms: _181  and  _183
REMARK   76  A    between atoms: _183  and  _184
REMARK   77  A    between atoms: _187  and  _189
REMARK   78  A    between atoms: _189  and  _190
REMARK   79  A    between atoms: _189  and  _192
REMARK   80  A    between atoms: _195  and  _197
REMARK   81  A    between atoms: _197  and  _198
REMARK   82  A    between atoms: _197  and  _200
REMARK   83  A    between atoms: _200  and  _201
REMARK   84  A    between atoms: _205  and  ZN_355
REMARK   85  A    between atoms: _206  and  _208
REMARK   86  A    between atoms: _208  and  _209
REMARK   87  A    between atoms: _208  and  _211
REMARK   88  A    between atoms: _211  and  _212
REMARK   89  A    between atoms: _212  and  _213
REMARK   90  A    between atoms: _216  and  _218
REMARK   91  A    between atoms: _218  and  _219
REMARK   92  A    between atoms: _218  and  _221
REMARK   93  A    between atoms: _221  and  _222
REMARK   94  A    between atoms: _225  and  _227
REMARK   95  A    between atoms: _227  and  _228
REMARK   96  A    between atoms: _227  and  _230
REMARK   97  A    between atoms: _230  and  _231
REMARK   98  A    between atoms: _235  and  ZN_355
REMARK   99  A    between atoms: _236  and  _238
REMARK  100  A    between atoms: _238  and  _239
REMARK  101  A    between atoms: _238  and  _241
REMARK  102  A    between atoms: _241  and  _242
REMARK  103  A    between atoms: _244  and  _246
REMARK  104  A    between atoms: _246  and  _247
REMARK  105  A    between atoms: _246  and  _249
REMARK  106  A    between atoms: _249  and  _250
REMARK  107  A    between atoms: _253  and  _255
REMARK  108  A    between atoms: _255  and  _256
REMARK  109  A    between atoms: _258  and  _260
REMARK  110  A    between atoms: _260  and  _261
REMARK  111  A    between atoms: _260  and  _263
REMARK  112  A    between atoms: _263  and  _264
REMARK  113  A    between atoms: _268  and  ZN_355
REMARK  114  A    between atoms: _269  and  _271
REMARK  115  A    between atoms: _271  and  _272
REMARK  116  A    between atoms: _271  and  _274
REMARK  117  A    between atoms: _274  and  _275
REMARK  118  A    between atoms: _277  and  _279
REMARK  119  A    between atoms: _279  and  _280
REMARK  120  A    between atoms: _283  and  _285
REMARK  121  A    between atoms: _285  and  _286
REMARK  122  A    between atoms: _285  and  _288
REMARK  123  A    between atoms: _291  and  _293
REMARK  124  A    between atoms: _293  and  _294
REMARK  125  A    between atoms: _293  and  _296
REMARK  126  A    between atoms: _296  and  _297
REMARK  127  A    between atoms: _297  and  _298
REMARK  128  A    between atoms: _300  and  _302
REMARK  129  A    between atoms: _302  and  _303
REMARK  130  A    between atoms: _302  and  _305
REMARK  131  A    between atoms: _305  and  _306
REMARK  132  A    between atoms: _313  and  _314
REMARK  133  A    between atoms: _319  and  _321
REMARK  134  A    between atoms: _321  and  _322
REMARK  135  A    between atoms: _321  and  _324
REMARK  136  A    between atoms: _324  and  _325
REMARK  137  A    between atoms: _328  and  _330
REMARK  138  A    between atoms: _330  and  _331
REMARK  139  A    between atoms: _330  and  _333
REMARK  140  A    between atoms: _333  and  _334
REMARK  141  A    between atoms: _339  and  _340
REMARK  142  A    between atoms: _342  and  _344
REMARK  143  A    between atoms: _344  and  _345
REMARK  144  A    between atoms: _344  and  _347
REMARK  145  A    between atoms: _347  and  _348
REMARK  146  A    between atoms: _348  and  _349
REMARK  147  A    between atoms: _349  and  _350
REMARK  148  A    between atoms: _350  and  _351
REMARK                            x       y       z     vdW  Elec       q    Type
REMARK                         _______ _______ _______ _____ _____    ______ ____
ROOT
ATOM      1  O   HOH     1      -3.109 -10.435  -1.284  0.00  0.00    +0.000 OA
ENDROOT
TORSDOF 0
REMARK  Name = ../refined-set-2016/3f1a/3f1a_pocket.pdb
REMARK  148 active torsions:
REMARK  status: ('A' for Active; 'I' for Inactive)
REMARK    1  A    between atoms: _1  and  _3
REMARK    2  A    between atoms: _3  and  _4
REMARK    3  A    between atoms: _3  and  _6
REMARK    4  A    between atoms: _6  and  _7
REMARK    5  A    between atoms: _13  and  _15
REMARK    6  A    between atoms: _15  and  _16
REMARK    7  A    between atoms: _15  and  _18
REMARK    8  A    between atoms: _18  and  _19
REMARK    9  A    between atoms: _22  and  _24
REMARK   10  A    between atoms: _24  and  _25
REMARK   11  A    between atoms: _27  and  _29
REMARK   12  A    between atoms: _29  and  _30
REMARK   13  A    between atoms: _32  and  _34
REMARK   14  A    between atoms: _34  and  _35
REMARK   15  A    between atoms: _34  and  _37
REMARK   16  A    between atoms: _35  and  _36
REMARK   17  A    between atoms: _35  and  _41
REMARK   18  A    between atoms: _36  and  CA_356
REMARK   19  A    between atoms: _37  and  _38
REMARK   20  A    between atoms: _41  and  _43
REMARK   21  A    between atoms: _43  and  _44
REMARK   22  A    between atoms: _43  and  _46
REMARK   23  A    between atoms: _46  and  _47
REMARK   24  A    between atoms: _50  and  _52
REMARK   25  A    between atoms: _52  and  _53
REMARK   26  A    between atoms: _56  and  _58
REMARK   27  A    between atoms: _58  and  _59
REMARK   28  A    between atoms: _58  and  _61
REMARK   29  A    between atoms: _61  and  _62
REMARK   30  A    between atoms: _67  and  _69
REMARK   31  A    between atoms: _69  and  _70
REMARK   32  A    between atoms: _73  and  _75
REMARK   33  A    between atoms: _75  and  _76
REMARK   34  A    between atoms: _75  and  _78
REMARK   35  A    between atoms: _78  and  _79
REMARK   36  A    between atoms: _85  and  _87
REMARK   37  A    between atoms: _87  and  _88
REMARK   38  A    between atoms: _87  and  _90
REMARK   39  A    between atoms: _90  and  _91
REMARK   40  A    between atoms: _96  and  _98
REMARK   41  A    between atoms: _98  and  _99
REMARK   42  A    between atoms: _98  and  _101
REMARK   43  A    between atoms: _101  and  _102
REMARK   44  A    between atoms: _108  and  _110
REMARK   45  A    between atoms: _110  and  _111
REMARK   46  A    between atoms: _110  and  _113
REMARK   47  A    between atoms: _113  and  _114
REMARK   48  A    between atoms: _117  and  _119
REMARK   49  A    between atoms: _119  and  _120
REMARK   50  A    between atoms: _119  and  _122
REMARK   51  A    between atoms: _122  and  _123
REMARK   52  A    between atoms: _123  and  _124
REMARK   53  A    between atoms: _124  and  _126
REMARK   54  A    between atoms: _126  and  CA_356
REMARK   55  A    between atoms: _127  and  _129
REMARK   56  A    between atoms: _129  and  _130
REMARK   57  A    between atoms: _129  and  _132
REMARK   58  A    between atoms: _132  and  _133
REMARK   59  A    between atoms: _143  and  _145
REMARK   60  A    between atoms: _145  and  _146
REMARK   61  A    between atoms: _145  and  _148
REMARK   62  A    between atoms: _148  and  _149
REMARK   63  A    between atoms: _152  and  _154
REMARK   64  A    between atoms: _154  and  _155
REMARK   65  A    between atoms: _154  and  _157
REMARK   66  A    between atoms: _157  and  _158
REMARK   67  A    between atoms: _163  and  _165
REMARK   68  A    between atoms: _165  and  _166
REMARK   69  A    between atoms: _165  and  _168
REMARK   70  A    between atoms: _168  and  _169
REMARK   71  A    between atoms: _172  and  _174
REMARK   72  A    between atoms: _174  and  _175
REMARK   73  A    between atoms: _174  and  _177
REMARK   74  A    between atoms: _177  and  _178
REMARK   75  A    between atoms: _181  and  _183
REMARK   76  A    between atoms: _183  and  _184
REMARK   77  A    between atoms: _187  and  _189
REMARK   78  A    between atoms: _189  and  _190
REMARK   79  A    between atoms: _189  and  _192
REMARK   80  A    between atoms: _195  and  _197
REMARK   81  A    between atoms: _197  and  _198
REMARK   82  A    between atoms: _197  and  _200
REMARK   83  A    between atoms: _200  and  _201
REMARK   84  A    between atoms: _205  and  ZN_355
REMARK   85  A    between atoms: _206  and  _208
REMARK   86  A    between atoms: _208  and  _209
REMARK   87  A    between atoms: _208  and  _211
REMARK   88  A    between atoms: _211  and  _212
REMARK   89  A    between atoms: _212  and  _213
REMARK   90  A    between atoms: _216  and  _218
REMARK   91  A    between atoms: _218  and  _219
REMARK   92  A    between atoms: _218  and  _221
REMARK   93  A    between atoms: _221  and  _222
REMARK   94  A    between atoms: _225  and  _227
REMARK   95  A    between atoms: _227  and  _228
REMARK   96  A    between atoms: _227  and  _230
REMARK   97  A    between atoms: _230  and  _231
REMARK   98  A    between atoms: _235  and  ZN_355
REMARK   99  A    between atoms: _236  and  _238
REMARK  100  A    between atoms: _238  and  _239
REMARK  101  A    between atoms: _238  and  _241
REMARK  102  A    between atoms: _241  and  _242
REMARK  103  A    between atoms: _244  and  _246
REMARK  104  A    between atoms: _246  and  _247
REMARK  105  A    between atoms: _246  and  _249
REMARK  106  A    between atoms: _249  and  _250
REMARK  107  A    between atoms: _253  and  _255
REMARK  108  A    between atoms: _255  and  _256
REMARK  109  A    between atoms: _258  and  _260
REMARK  110  A    between atoms: _260  and  _261
REMARK  111  A    between atoms: _260  and  _263
REMARK  112  A    between atoms: _263  and  _264
REMARK  113  A    between atoms: _268  and  ZN_355
REMARK  114  A    between atoms: _269  and  _271
REMARK  115  A    between atoms: _271  and  _272
REMARK  116  A    between atoms: _271  and  _274
REMARK  117  A    between atoms: _274  and  _275
REMARK  118  A    between atoms: _277  and  _279
REMARK  119  A    between atoms: _279  and  _280
REMARK  120  A    between atoms: _283  and  _285
REMARK  121  A    between atoms: _285  and  _286
REMARK  122  A    between atoms: _285  and  _288
REMARK  123  A    between atoms: _291  and  _293
REMARK  124  A    between atoms: _293  and  _294
REMARK  125  A    between atoms: _293  and  _296
REMARK  126  A    between atoms: _296  and  _297
REMARK  127  A    between atoms: _297  and  _298
REMARK  128  A    between atoms: _300  and  _302
REMARK  129  A    between atoms: _302  and  _303
REMARK  130  A    between atoms: _302  and  _305
REMARK  131  A    between atoms: _305  and  _306
REMARK  132  A    between atoms: _313  and  _314
REMARK  133  A    between atoms: _319  and  _321
REMARK  134  A    between atoms: _321  and  _322
REMARK  135  A    between atoms: _321  and  _324
REMARK  136  A    between atoms: _324  and  _325
REMARK  137  A    between atoms: _328  and  _330
REMARK  138  A    between atoms: _330  and  _331
REMARK  139  A    between atoms: _330  and  _333
REMARK  140  A    between atoms: _333  and  _334
REMARK  141  A    between atoms: _339  and  _340
REMARK  142  A    between atoms: _342  and  _344
REMARK  143  A    between atoms: _344  and  _345
REMARK  144  A    between atoms: _344  and  _347
REMARK  145  A    between atoms: _347  and  _348
REMARK  146  A    between atoms: _348  and  _349
REMARK  147  A    between atoms: _349  and  _350
REMARK  148  A    between atoms: _350  and  _351
REMARK                            x       y       z     vdW  Elec       q    Type
REMARK                         _______ _______ _______ _____ _____    ______ ____
ROOT
ATOM      1  O   HOH     1      -7.628  -6.690 -10.703  0.00  0.00    +0.000 OA
ENDROOT
TORSDOF 0
REMARK  Name = ../refined-set-2016/3f1a/3f1a_pocket.pdb
REMARK  148 active torsions:
REMARK  status: ('A' for Active; 'I' for Inactive)
REMARK    1  A    between atoms: _1  and  _3
REMARK    2  A    between atoms: _3  and  _4
REMARK    3  A    between atoms: _3  and  _6
REMARK    4  A    between atoms: _6  and  _7
REMARK    5  A    between atoms: _13  and  _15
REMARK    6  A    between atoms: _15  and  _16
REMARK    7  A    between atoms: _15  and  _18
REMARK    8  A    between atoms: _18  and  _19
REMARK    9  A    between atoms: _22  and  _24
REMARK   10  A    between atoms: _24  and  _25
REMARK   11  A    between atoms: _27  and  _29
REMARK   12  A    between atoms: _29  and  _30
REMARK   13  A    between atoms: _32  and  _34
REMARK   14  A    between atoms: _34  and  _35
REMARK   15  A    between atoms: _34  and  _37
REMARK   16  A    between atoms: _35  and  _36
REMARK   17  A    between atoms: _35  and  _41
REMARK   18  A    between atoms: _36  and  CA_356
REMARK   19  A    between atoms: _37  and  _38
REMARK   20  A    between atoms: _41  and  _43
REMARK   21  A    between atoms: _43  and  _44
REMARK   22  A    between atoms: _43  and  _46
REMARK   23  A    between atoms: _46  and  _47
REMARK   24  A    between atoms: _50  and  _52
REMARK   25  A    between atoms: _52  and  _53
REMARK   26  A    between atoms: _56  and  _58
REMARK   27  A    between atoms: _58  and  _59
REMARK   28  A    between atoms: _58  and  _61
REMARK   29  A    between atoms: _61  and  _62
REMARK   30  A    between atoms: _67  and  _69
REMARK   31  A    between atoms: _69  and  _70
REMARK   32  A    between atoms: _73  and  _75
REMARK   33  A    between atoms: _75  and  _76
REMARK   34  A    between atoms: _75  and  _78
REMARK   35  A    between atoms: _78  and  _79
REMARK   36  A    between atoms: _85  and  _87
REMARK   37  A    between atoms: _87  and  _88
REMARK   38  A    between atoms: _87  and  _90
REMARK   39  A    between atoms: _90  and  _91
REMARK   40  A    between atoms: _96  and  _98
REMARK   41  A    between atoms: _98  and  _99
REMARK   42  A    between atoms: _98  and  _101
REMARK   43  A    between atoms: _101  and  _102
REMARK   44  A    between atoms: _108  and  _110
REMARK   45  A    between atoms: _110  and  _111
REMARK   46  A    between atoms: _110  and  _113
REMARK   47  A    between atoms: _113  and  _114
REMARK   48  A    between atoms: _117  and  _119
REMARK   49  A    between atoms: _119  and  _120
REMARK   50  A    between atoms: _119  and  _122
REMARK   51  A    between atoms: _122  and  _123
REMARK   52  A    between atoms: _123  and  _124
REMARK   53  A    between atoms: _124  and  _126
REMARK   54  A    between atoms: _126  and  CA_356
REMARK   55  A    between atoms: _127  and  _129
REMARK   56  A    between atoms: _129  and  _130
REMARK   57  A    between atoms: _129  and  _132
REMARK   58  A    between atoms: _132  and  _133
REMARK   59  A    between atoms: _143  and  _145
REMARK   60  A    between atoms: _145  and  _146
REMARK   61  A    between atoms: _145  and  _148
REMARK   62  A    between atoms: _148  and  _149
REMARK   63  A    between atoms: _152  and  _154
REMARK   64  A    between atoms: _154  and  _155
REMARK   65  A    between atoms: _154  and  _157
REMARK   66  A    between atoms: _157  and  _158
REMARK   67  A    between atoms: _163  and  _165
REMARK   68  A    between atoms: _165  and  _166
REMARK   69  A    between atoms: _165  and  _168
REMARK   70  A    between atoms: _168  and  _169
REMARK   71  A    between atoms: _172  and  _174
REMARK   72  A    between atoms: _174  and  _175
REMARK   73  A    between atoms: _174  and  _177
REMARK   74  A    between atoms: _177  and  _178
REMARK   75  A    between atoms: _181  and  _183
REMARK   76  A    between atoms: _183  and  _184
REMARK   77  A    between atoms: _187  and  _189
REMARK   78  A    between atoms: _189  and  _190
REMARK   79  A    between atoms: _189  and  _192
REMARK   80  A    between atoms: _195  and  _197
REMARK   81  A    between atoms: _197  and  _198
REMARK   82  A    between atoms: _197  and  _200
REMARK   83  A    between atoms: _200  and  _201
REMARK   84  A    between atoms: _205  and  ZN_355
REMARK   85  A    between atoms: _206  and  _208
REMARK   86  A    between atoms: _208  and  _209
REMARK   87  A    between atoms: _208  and  _211
REMARK   88  A    between atoms: _211  and  _212
REMARK   89  A    between atoms: _212  and  _213
REMARK   90  A    between atoms: _216  and  _218
REMARK   91  A    between atoms: _218  and  _219
REMARK   92  A    between atoms: _218  and  _221
REMARK   93  A    between atoms: _221  and  _222
REMARK   94  A    between atoms: _225  and  _227
REMARK   95  A    between atoms: _227  and  _228
REMARK   96  A    between atoms: _227  and  _230
REMARK   97  A    between atoms: _230  and  _231
REMARK   98  A    between atoms: _235  and  ZN_355
REMARK   99  A    between atoms: _236  and  _238
REMARK  100  A    between atoms: _238  and  _239
REMARK  101  A    between atoms: _238  and  _241
REMARK  102  A    between atoms: _241  and  _242
REMARK  103  A    between atoms: _244  and  _246
REMARK  104  A    between atoms: _246  and  _247
REMARK  105  A    between atoms: _246  and  _249
REMARK  106  A    between atoms: _249  and  _250
REMARK  107  A    between atoms: _253  and  _255
REMARK  108  A    between atoms: _255  and  _256
REMARK  109  A    between atoms: _258  and  _260
REMARK  110  A    between atoms: _260  and  _261
REMARK  111  A    between atoms: _260  and  _263
REMARK  112  A    between atoms: _263  and  _264
REMARK  113  A    between atoms: _268  and  ZN_355
REMARK  114  A    between atoms: _269  and  _271
REMARK  115  A    between atoms: _271  and  _272
REMARK  116  A    between atoms: _271  and  _274
REMARK  117  A    between atoms: _274  and  _275
REMARK  118  A    between atoms: _277  and  _279
REMARK  119  A    between atoms: _279  and  _280
REMARK  120  A    between atoms: _283  and  _285
REMARK  121  A    between atoms: _285  and  _286
REMARK  122  A    between atoms: _285  and  _288
REMARK  123  A    between atoms: _291  and  _293
REMARK  124  A    between atoms: _293  and  _294
REMARK  125  A    between atoms: _293  and  _296
REMARK  126  A    between atoms: _296  and  _297
REMARK  127  A    between atoms: _297  and  _298
REMARK  128  A    between atoms: _300  and  _302
REMARK  129  A    between atoms: _302  and  _303
REMARK  130  A    between atoms: _302  and  _305
REMARK  131  A    between atoms: _305  and  _306
REMARK  132  A    between atoms: _313  and  _314
REMARK  133  A    between atoms: _319  and  _321
REMARK  134  A    between atoms: _321  and  _322
REMARK  135  A    between atoms: _321  and  _324
REMARK  136  A    between atoms: _324  and  _325
REMARK  137  A    between atoms: _328  and  _330
REMARK  138  A    between atoms: _330  and  _331
REMARK  139  A    between atoms: _330  and  _333
REMARK  140  A    between atoms: _333  and  _334
REMARK  141  A    between atoms: _339  and  _340
REMARK  142  A    between atoms: _342  and  _344
REMARK  143  A    between atoms: _344  and  _345
REMARK  144  A    between atoms: _344  and  _347
REMARK  145  A    between atoms: _347  and  _348
REMARK  146  A    between atoms: _348  and  _349
REMARK  147  A    between atoms: _349  and  _350
REMARK  148  A    between atoms: _350  and  _351
REMARK                            x       y       z     vdW  Elec       q    Type
REMARK                         _______ _______ _______ _____ _____    ______ ____
ROOT
ATOM      1  O   HOH     1      -2.706   5.295  -4.717  0.00  0.00    +0.000 OA
ENDROOT
TORSDOF 0
REMARK  Name = ../refined-set-2016/3f1a/3f1a_pocket.pdb
REMARK  148 active torsions:
REMARK  status: ('A' for Active; 'I' for Inactive)
REMARK    1  A    between atoms: _1  and  _3
REMARK    2  A    between atoms: _3  and  _4
REMARK    3  A    between atoms: _3  and  _6
REMARK    4  A    between atoms: _6  and  _7
REMARK    5  A    between atoms: _13  and  _15
REMARK    6  A    between atoms: _15  and  _16
REMARK    7  A    between atoms: _15  and  _18
REMARK    8  A    between atoms: _18  and  _19
REMARK    9  A    between atoms: _22  and  _24
REMARK   10  A    between atoms: _24  and  _25
REMARK   11  A    between atoms: _27  and  _29
REMARK   12  A    between atoms: _29  and  _30
REMARK   13  A    between atoms: _32  and  _34
REMARK   14  A    between atoms: _34  and  _35
REMARK   15  A    between atoms: _34  and  _37
REMARK   16  A    between atoms: _35  and  _36
REMARK   17  A    between atoms: _35  and  _41
REMARK   18  A    between atoms: _36  and  CA_356
REMARK   19  A    between atoms: _37  and  _38
REMARK   20  A    between atoms: _41  and  _43
REMARK   21  A    between atoms: _43  and  _44
REMARK   22  A    between atoms: _43  and  _46
REMARK   23  A    between atoms: _46  and  _47
REMARK   24  A    between atoms: _50  and  _52
REMARK   25  A    between atoms: _52  and  _53
REMARK   26  A    between atoms: _56  and  _58
REMARK   27  A    between atoms: _58  and  _59
REMARK   28  A    between atoms: _58  and  _61
REMARK   29  A    between atoms: _61  and  _62
REMARK   30  A    between atoms: _67  and  _69
REMARK   31  A    between atoms: _69  and  _70
REMARK   32  A    between atoms: _73  and  _75
REMARK   33  A    between atoms: _75  and  _76
REMARK   34  A    between atoms: _75  and  _78
REMARK   35  A    between atoms: _78  and  _79
REMARK   36  A    between atoms: _85  and  _87
REMARK   37  A    between atoms: _87  and  _88
REMARK   38  A    between atoms: _87  and  _90
REMARK   39  A    between atoms: _90  and  _91
REMARK   40  A    between atoms: _96  and  _98
REMARK   41  A    between atoms: _98  and  _99
REMARK   42  A    between atoms: _98  and  _101
REMARK   43  A    between atoms: _101  and  _102
REMARK   44  A    between atoms: _108  and  _110
REMARK   45  A    between atoms: _110  and  _111
REMARK   46  A    between atoms: _110  and  _113
REMARK   47  A    between atoms: _113  and  _114
REMARK   48  A    between atoms: _117  and  _119
REMARK   49  A    between atoms: _119  and  _120
REMARK   50  A    between atoms: _119  and  _122
REMARK   51  A    between atoms: _122  and  _123
REMARK   52  A    between atoms: _123  and  _124
REMARK   53  A    between atoms: _124  and  _126
REMARK   54  A    between atoms: _126  and  CA_356
REMARK   55  A    between atoms: _127  and  _129
REMARK   56  A    between atoms: _129  and  _130
REMARK   57  A    between atoms: _129  and  _132
REMARK   58  A    between atoms: _132  and  _133
REMARK   59  A    between atoms: _143  and  _145
REMARK   60  A    between atoms: _145  and  _146
REMARK   61  A    between atoms: _145  and  _148
REMARK   62  A    between atoms: _148  and  _149
REMARK   63  A    between atoms: _152  and  _154
REMARK   64  A    between atoms: _154  and  _155
REMARK   65  A    between atoms: _154  and  _157
REMARK   66  A    between atoms: _157  and  _158
REMARK   67  A    between atoms: _163  and  _165
REMARK   68  A    between atoms: _165  and  _166
REMARK   69  A    between atoms: _165  and  _168
REMARK   70  A    between atoms: _168  and  _169
REMARK   71  A    between atoms: _172  and  _174
REMARK   72  A    between atoms: _174  and  _175
REMARK   73  A    between atoms: _174  and  _177
REMARK   74  A    between atoms: _177  and  _178
REMARK   75  A    between atoms: _181  and  _183
REMARK   76  A    between atoms: _183  and  _184
REMARK   77  A    between atoms: _187  and  _189
REMARK   78  A    between atoms: _189  and  _190
REMARK   79  A    between atoms: _189  and  _192
REMARK   80  A    between atoms: _195  and  _197
REMARK   81  A    between atoms: _197  and  _198
REMARK   82  A    between atoms: _197  and  _200
REMARK   83  A    between atoms: _200  and  _201
REMARK   84  A    between atoms: _205  and  ZN_355
REMARK   85  A    between atoms: _206  and  _208
REMARK   86  A    between atoms: _208  and  _209
REMARK   87  A    between atoms: _208  and  _211
REMARK   88  A    between atoms: _211  and  _212
REMARK   89  A    between atoms: _212  and  _213
REMARK   90  A    between atoms: _216  and  _218
REMARK   91  A    between atoms: _218  and  _219
REMARK   92  A    between atoms: _218  and  _221
REMARK   93  A    between atoms: _221  and  _222
REMARK   94  A    between atoms: _225  and  _227
REMARK   95  A    between atoms: _227  and  _228
REMARK   96  A    between atoms: _227  and  _230
REMARK   97  A    between atoms: _230  and  _231
REMARK   98  A    between atoms: _235  and  ZN_355
REMARK   99  A    between atoms: _236  and  _238
REMARK  100  A    between atoms: _238  and  _239
REMARK  101  A    between atoms: _238  and  _241
REMARK  102  A    between atoms: _241  and  _242
REMARK  103  A    between atoms: _244  and  _246
REMARK  104  A    between atoms: _246  and  _247
REMARK  105  A    between atoms: _246  and  _249
REMARK  106  A    between atoms: _249  and  _250
REMARK  107  A    between atoms: _253  and  _255
REMARK  108  A    between atoms: _255  and  _256
REMARK  109  A    between atoms: _258  and  _260
REMARK  110  A    between atoms: _260  and  _261
REMARK  111  A    between atoms: _260  and  _263
REMARK  112  A    between atoms: _263  and  _264
REMARK  113  A    between atoms: _268  and  ZN_355
REMARK  114  A    between atoms: _269  and  _271
REMARK  115  A    between atoms: _271  and  _272
REMARK  116  A    between atoms: _271  and  _274
REMARK  117  A    between atoms: _274  and  _275
REMARK  118  A    between atoms: _277  and  _279
REMARK  119  A    between atoms: _279  and  _280
REMARK  120  A    between atoms: _283  and  _285
REMARK  121  A    between atoms: _285  and  _286
REMARK  122  A    between atoms: _285  and  _288
REMARK  123  A    between atoms: _291  and  _293
REMARK  124  A    between atoms: _293  and  _294
REMARK  125  A    between atoms: _293  and  _296
REMARK  126  A    between atoms: _296  and  _297
REMARK  127  A    between atoms: _297  and  _298
REMARK  128  A    between atoms: _300  and  _302
REMARK  129  A    between atoms: _302  and  _303
REMARK  130  A    between atoms: _302  and  _305
REMARK  131  A    between atoms: _305  and  _306
REMARK  132  A    between atoms: _313  and  _314
REMARK  133  A    between atoms: _319  and  _321
REMARK  134  A    between atoms: _321  and  _322
REMARK  135  A    between atoms: _321  and  _324
REMARK  136  A    between atoms: _324  and  _325
REMARK  137  A    between atoms: _328  and  _330
REMARK  138  A    between atoms: _330  and  _331
REMARK  139  A    between atoms: _330  and  _333
REMARK  140  A    between atoms: _333  and  _334
REMARK  141  A    between atoms: _339  and  _340
REMARK  142  A    between atoms: _342  and  _344
REMARK  143  A    between atoms: _344  and  _345
REMARK  144  A    between atoms: _344  and  _347
REMARK  145  A    between atoms: _347  and  _348
REMARK  146  A    between atoms: _348  and  _349
REMARK  147  A    between atoms: _349  and  _350
REMARK  148  A    between atoms: _350  and  _351
REMARK                            x       y       z     vdW  Elec       q    Type
REMARK                         _______ _______ _______ _____ _____    ______ ____
ROOT
ATOM      1  O   HOH     1     -10.572  -9.643 -10.247  0.00  0.00    +0.000 OA
ENDROOT
TORSDOF 0
REMARK  Name = ../refined-set-2016/3f1a/3f1a_pocket.pdb
REMARK  148 active torsions:
REMARK  status: ('A' for Active; 'I' for Inactive)
REMARK    1  A    between atoms: _1  and  _3
REMARK    2  A    between atoms: _3  and  _4
REMARK    3  A    between atoms: _3  and  _6
REMARK    4  A    between atoms: _6  and  _7
REMARK    5  A    between atoms: _13  and  _15
REMARK    6  A    between atoms: _15  and  _16
REMARK    7  A    between atoms: _15  and  _18
REMARK    8  A    between atoms: _18  and  _19
REMARK    9  A    between atoms: _22  and  _24
REMARK   10  A    between atoms: _24  and  _25
REMARK   11  A    between atoms: _27  and  _29
REMARK   12  A    between atoms: _29  and  _30
REMARK   13  A    between atoms: _32  and  _34
REMARK   14  A    between atoms: _34  and  _35
REMARK   15  A    between atoms: _34  and  _37
REMARK   16  A    between atoms: _35  and  _36
REMARK   17  A    between atoms: _35  and  _41
REMARK   18  A    between atoms: _36  and  CA_356
REMARK   19  A    between atoms: _37  and  _38
REMARK   20  A    between atoms: _41  and  _43
REMARK   21  A    between atoms: _43  and  _44
REMARK   22  A    between atoms: _43  and  _46
REMARK   23  A    between atoms: _46  and  _47
REMARK   24  A    between atoms: _50  and  _52
REMARK   25  A    between atoms: _52  and  _53
REMARK   26  A    between atoms: _56  and  _58
REMARK   27  A    between atoms: _58  and  _59
REMARK   28  A    between atoms: _58  and  _61
REMARK   29  A    between atoms: _61  and  _62
REMARK   30  A    between atoms: _67  and  _69
REMARK   31  A    between atoms: _69  and  _70
REMARK   32  A    between atoms: _73  and  _75
REMARK   33  A    between atoms: _75  and  _76
REMARK   34  A    between atoms: _75  and  _78
REMARK   35  A    between atoms: _78  and  _79
REMARK   36  A    between atoms: _85  and  _87
REMARK   37  A    between atoms: _87  and  _88
REMARK   38  A    between atoms: _87  and  _90
REMARK   39  A    between atoms: _90  and  _91
REMARK   40  A    between atoms: _96  and  _98
REMARK   41  A    between atoms: _98  and  _99
REMARK   42  A    between atoms: _98  and  _101
REMARK   43  A    between atoms: _101  and  _102
REMARK   44  A    between atoms: _108  and  _110
REMARK   45  A    between atoms: _110  and  _111
REMARK   46  A    between atoms: _110  and  _113
REMARK   47  A    between atoms: _113  and  _114
REMARK   48  A    between atoms: _117  and  _119
REMARK   49  A    between atoms: _119  and  _120
REMARK   50  A    between atoms: _119  and  _122
REMARK   51  A    between atoms: _122  and  _123
REMARK   52  A    between atoms: _123  and  _124
REMARK   53  A    between atoms: _124  and  _126
REMARK   54  A    between atoms: _126  and  CA_356
REMARK   55  A    between atoms: _127  and  _129
REMARK   56  A    between atoms: _129  and  _130
REMARK   57  A    between atoms: _129  and  _132
REMARK   58  A    between atoms: _132  and  _133
REMARK   59  A    between atoms: _143  and  _145
REMARK   60  A    between atoms: _145  and  _146
REMARK   61  A    between atoms: _145  and  _148
REMARK   62  A    between atoms: _148  and  _149
REMARK   63  A    between atoms: _152  and  _154
REMARK   64  A    between atoms: _154  and  _155
REMARK   65  A    between atoms: _154  and  _157
REMARK   66  A    between atoms: _157  and  _158
REMARK   67  A    between atoms: _163  and  _165
REMARK   68  A    between atoms: _165  and  _166
REMARK   69  A    between atoms: _165  and  _168
REMARK   70  A    between atoms: _168  and  _169
REMARK   71  A    between atoms: _172  and  _174
REMARK   72  A    between atoms: _174  and  _175
REMARK   73  A    between atoms: _174  and  _177
REMARK   74  A    between atoms: _177  and  _178
REMARK   75  A    between atoms: _181  and  _183
REMARK   76  A    between atoms: _183  and  _184
REMARK   77  A    between atoms: _187  and  _189
REMARK   78  A    between atoms: _189  and  _190
REMARK   79  A    between atoms: _189  and  _192
REMARK   80  A    between atoms: _195  and  _197
REMARK   81  A    between atoms: _197  and  _198
REMARK   82  A    between atoms: _197  and  _200
REMARK   83  A    between atoms: _200  and  _201
REMARK   84  A    between atoms: _205  and  ZN_355
REMARK   85  A    between atoms: _206  and  _208
REMARK   86  A    between atoms: _208  and  _209
REMARK   87  A    between atoms: _208  and  _211
REMARK   88  A    between atoms: _211  and  _212
REMARK   89  A    between atoms: _212  and  _213
REMARK   90  A    between atoms: _216  and  _218
REMARK   91  A    between atoms: _218  and  _219
REMARK   92  A    between atoms: _218  and  _221
REMARK   93  A    between atoms: _221  and  _222
REMARK   94  A    between atoms: _225  and  _227
REMARK   95  A    between atoms: _227  and  _228
REMARK   96  A    between atoms: _227  and  _230
REMARK   97  A    between atoms: _230  and  _231
REMARK   98  A    between atoms: _235  and  ZN_355
REMARK   99  A    between atoms: _236  and  _238
REMARK  100  A    between atoms: _238  and  _239
REMARK  101  A    between atoms: _238  and  _241
REMARK  102  A    between atoms: _241  and  _242
REMARK  103  A    between atoms: _244  and  _246
REMARK  104  A    between atoms: _246  and  _247
REMARK  105  A    between atoms: _246  and  _249
REMARK  106  A    between atoms: _249  and  _250
REMARK  107  A    between atoms: _253  and  _255
REMARK  108  A    between atoms: _255  and  _256
REMARK  109  A    between atoms: _258  and  _260
REMARK  110  A    between atoms: _260  and  _261
REMARK  111  A    between atoms: _260  and  _263
REMARK  112  A    between atoms: _263  and  _264
REMARK  113  A    between atoms: _268  and  ZN_355
REMARK  114  A    between atoms: _269  and  _271
REMARK  115  A    between atoms: _271  and  _272
REMARK  116  A    between atoms: _271  and  _274
REMARK  117  A    between atoms: _274  and  _275
REMARK  118  A    between atoms: _277  and  _279
REMARK  119  A    between atoms: _279  and  _280
REMARK  120  A    between atoms: _283  and  _285
REMARK  121  A    between atoms: _285  and  _286
REMARK  122  A    between atoms: _285  and  _288
REMARK  123  A    between atoms: _291  and  _293
REMARK  124  A    between atoms: _293  and  _294
REMARK  125  A    between atoms: _293  and  _296
REMARK  126  A    between atoms: _296  and  _297
REMARK  127  A    between atoms: _297  and  _298
REMARK  128  A    between atoms: _300  and  _302
REMARK  129  A    between atoms: _302  and  _303
REMARK  130  A    between atoms: _302  and  _305
REMARK  131  A    between atoms: _305  and  _306
REMARK  132  A    between atoms: _313  and  _314
REMARK  133  A    between atoms: _319  and  _321
REMARK  134  A    between atoms: _321  and  _322
REMARK  135  A    between atoms: _321  and  _324
REMARK  136  A    between atoms: _324  and  _325
REMARK  137  A    between atoms: _328  and  _330
REMARK  138  A    between atoms: _330  and  _331
REMARK  139  A    between atoms: _330  and  _333
REMARK  140  A    between atoms: _333  and  _334
REMARK  141  A    between atoms: _339  and  _340
REMARK  142  A    between atoms: _342  and  _344
REMARK  143  A    between atoms: _344  and  _345
REMARK  144  A    between atoms: _344  and  _347
REMARK  145  A    between atoms: _347  and  _348
REMARK  146  A    between atoms: _348  and  _349
REMARK  147  A    between atoms: _349  and  _350
REMARK  148  A    between atoms: _350  and  _351
REMARK                            x       y       z     vdW  Elec       q    Type
REMARK                         _______ _______ _______ _____ _____    ______ ____
ROOT
ATOM      1  O   HOH     1      -0.001 -12.511  -2.161  0.00  0.00    +0.000 OA
ENDROOT
TORSDOF 0
REMARK  Name = ../refined-set-2016/3f1a/3f1a_pocket.pdb
REMARK  148 active torsions:
REMARK  status: ('A' for Active; 'I' for Inactive)
REMARK    1  A    between atoms: _1  and  _3
REMARK    2  A    between atoms: _3  and  _4
REMARK    3  A    between atoms: _3  and  _6
REMARK    4  A    between atoms: _6  and  _7
REMARK    5  A    between atoms: _13  and  _15
REMARK    6  A    between atoms: _15  and  _16
REMARK    7  A    between atoms: _15  and  _18
REMARK    8  A    between atoms: _18  and  _19
REMARK    9  A    between atoms: _22  and  _24
REMARK   10  A    between atoms: _24  and  _25
REMARK   11  A    between atoms: _27  and  _29
REMARK   12  A    between atoms: _29  and  _30
REMARK   13  A    between atoms: _32  and  _34
REMARK   14  A    between atoms: _34  and  _35
REMARK   15  A    between atoms: _34  and  _37
REMARK   16  A    between atoms: _35  and  _36
REMARK   17  A    between atoms: _35  and  _41
REMARK   18  A    between atoms: _36  and  CA_356
REMARK   19  A    between atoms: _37  and  _38
REMARK   20  A    between atoms: _41  and  _43
REMARK   21  A    between atoms: _43  and  _44
REMARK   22  A    between atoms: _43  and  _46
REMARK   23  A    between atoms: _46  and  _47
REMARK   24  A    between atoms: _50  and  _52
REMARK   25  A    between atoms: _52  and  _53
REMARK   26  A    between atoms: _56  and  _58
REMARK   27  A    between atoms: _58  and  _59
REMARK   28  A    between atoms: _58  and  _61
REMARK   29  A    between atoms: _61  and  _62
REMARK   30  A    between atoms: _67  and  _69
REMARK   31  A    between atoms: _69  and  _70
REMARK   32  A    between atoms: _73  and  _75
REMARK   33  A    between atoms: _75  and  _76
REMARK   34  A    between atoms: _75  and  _78
REMARK   35  A    between atoms: _78  and  _79
REMARK   36  A    between atoms: _85  and  _87
REMARK   37  A    between atoms: _87  and  _88
REMARK   38  A    between atoms: _87  and  _90
REMARK   39  A    between atoms: _90  and  _91
REMARK   40  A    between atoms: _96  and  _98
REMARK   41  A    between atoms: _98  and  _99
REMARK   42  A    between atoms: _98  and  _101
REMARK   43  A    between atoms: _101  and  _102
REMARK   44  A    between atoms: _108  and  _110
REMARK   45  A    between atoms: _110  and  _111
REMARK   46  A    between atoms: _110  and  _113
REMARK   47  A    between atoms: _113  and  _114
REMARK   48  A    between atoms: _117  and  _119
REMARK   49  A    between atoms: _119  and  _120
REMARK   50  A    between atoms: _119  and  _122
REMARK   51  A    between atoms: _122  and  _123
REMARK   52  A    between atoms: _123  and  _124
REMARK   53  A    between atoms: _124  and  _126
REMARK   54  A    between atoms: _126  and  CA_356
REMARK   55  A    between atoms: _127  and  _129
REMARK   56  A    between atoms: _129  and  _130
REMARK   57  A    between atoms: _129  and  _132
REMARK   58  A    between atoms: _132  and  _133
REMARK   59  A    between atoms: _143  and  _145
REMARK   60  A    between atoms: _145  and  _146
REMARK   61  A    between atoms: _145  and  _148
REMARK   62  A    between atoms: _148  and  _149
REMARK   63  A    between atoms: _152  and  _154
REMARK   64  A    between atoms: _154  and  _155
REMARK   65  A    between atoms: _154  and  _157
REMARK   66  A    between atoms: _157  and  _158
REMARK   67  A    between atoms: _163  and  _165
REMARK   68  A    between atoms: _165  and  _166
REMARK   69  A    between atoms: _165  and  _168
REMARK   70  A    between atoms: _168  and  _169
REMARK   71  A    between atoms: _172  and  _174
REMARK   72  A    between atoms: _174  and  _175
REMARK   73  A    between atoms: _174  and  _177
REMARK   74  A    between atoms: _177  and  _178
REMARK   75  A    between atoms: _181  and  _183
REMARK   76  A    between atoms: _183  and  _184
REMARK   77  A    between atoms: _187  and  _189
REMARK   78  A    between atoms: _189  and  _190
REMARK   79  A    between atoms: _189  and  _192
REMARK   80  A    between atoms: _195  and  _197
REMARK   81  A    between atoms: _197  and  _198
REMARK   82  A    between atoms: _197  and  _200
REMARK   83  A    between atoms: _200  and  _201
REMARK   84  A    between atoms: _205  and  ZN_355
REMARK   85  A    between atoms: _206  and  _208
REMARK   86  A    between atoms: _208  and  _209
REMARK   87  A    between atoms: _208  and  _211
REMARK   88  A    between atoms: _211  and  _212
REMARK   89  A    between atoms: _212  and  _213
REMARK   90  A    between atoms: _216  and  _218
REMARK   91  A    between atoms: _218  and  _219
REMARK   92  A    between atoms: _218  and  _221
REMARK   93  A    between atoms: _221  and  _222
REMARK   94  A    between atoms: _225  and  _227
REMARK   95  A    between atoms: _227  and  _228
REMARK   96  A    between atoms: _227  and  _230
REMARK   97  A    between atoms: _230  and  _231
REMARK   98  A    between atoms: _235  and  ZN_355
REMARK   99  A    between atoms: _236  and  _238
REMARK  100  A    between atoms: _238  and  _239
REMARK  101  A    between atoms: _238  and  _241
REMARK  102  A    between atoms: _241  and  _242
REMARK  103  A    between atoms: _244  and  _246
REMARK  104  A    between atoms: _246  and  _247
REMARK  105  A    between atoms: _246  and  _249
REMARK  106  A    between atoms: _249  and  _250
REMARK  107  A    between atoms: _253  and  _255
REMARK  108  A    between atoms: _255  and  _256
REMARK  109  A    between atoms: _258  and  _260
REMARK  110  A    between atoms: _260  and  _261
REMARK  111  A    between atoms: _260  and  _263
REMARK  112  A    between atoms: _263  and  _264
REMARK  113  A    between atoms: _268  and  ZN_355
REMARK  114  A    between atoms: _269  and  _271
REMARK  115  A    between atoms: _271  and  _272
REMARK  116  A    between atoms: _271  and  _274
REMARK  117  A    between atoms: _274  and  _275
REMARK  118  A    between atoms: _277  and  _279
REMARK  119  A    between atoms: _279  and  _280
REMARK  120  A    between atoms: _283  and  _285
REMARK  121  A    between atoms: _285  and  _286
REMARK  122  A    between atoms: _285  and  _288
REMARK  123  A    between atoms: _291  and  _293
REMARK  124  A    between atoms: _293  and  _294
REMARK  125  A    between atoms: _293  and  _296
REMARK  126  A    between atoms: _296  and  _297
REMARK  127  A    between atoms: _297  and  _298
REMARK  128  A    between atoms: _300  and  _302
REMARK  129  A    between atoms: _302  and  _303
REMARK  130  A    between atoms: _302  and  _305
REMARK  131  A    between atoms: _305  and  _306
REMARK  132  A    between atoms: _313  and  _314
REMARK  133  A    between atoms: _319  and  _321
REMARK  134  A    between atoms: _321  and  _322
REMARK  135  A    between atoms: _321  and  _324
REMARK  136  A    between atoms: _324  and  _325
REMARK  137  A    between atoms: _328  and  _330
REMARK  138  A    between atoms: _330  and  _331
REMARK  139  A    between atoms: _330  and  _333
REMARK  140  A    between atoms: _333  and  _334
REMARK  141  A    between atoms: _339  and  _340
REMARK  142  A    between atoms: _342  and  _344
REMARK  143  A    between atoms: _344  and  _345
REMARK  144  A    between atoms: _344  and  _347
REMARK  145  A    between atoms: _347  and  _348
REMARK  146  A    between atoms: _348  and  _349
REMARK  147  A    between atoms: _349  and  _350
REMARK  148  A    between atoms: _350  and  _351
REMARK                            x       y       z     vdW  Elec       q    Type
REMARK                         _______ _______ _______ _____ _____    ______ ____
ROOT
ATOM      1  O   HOH     1       2.510  -2.637   0.411  0.00  0.00    +0.000 OA
ENDROOT
TORSDOF 0
