REMARK  Name = ../refined-set-2016/3ttp/3ttp_pocket.pdb
REMARK  209 active torsions:
REMARK  status: ('A' for Active; 'I' for Inactive)
REMARK    1  A    between atoms: _1  and  _3
REMARK    2  A    between atoms: _3  and  _4
REMARK    3  A    between atoms: _3  and  _6
REMARK    4  A    between atoms: _6  and  _7
REMARK    5  A    between atoms: _7  and  _8
REMARK    6  A    between atoms: _8  and  _9
REMARK    7  A    between atoms: _18  and  _20
REMARK    8  A    between atoms: _20  and  _21
REMARK    9  A    between atoms: _20  and  _23
REMARK   10  A    between atoms: _23  and  _24
REMARK   11  A    between atoms: _27  and  _29
REMARK   12  A    between atoms: _29  and  _30
REMARK   13  A    between atoms: _29  and  _32
REMARK   14  A    between atoms: _32  and  _33
REMARK   15  A    between atoms: _36  and  _38
REMARK   16  A    between atoms: _38  and  _39
REMARK   17  A    between atoms: _38  and  _41
REMARK   18  A    between atoms: _41  and  _42
REMARK   19  A    between atoms: _45  and  _47
REMARK   20  A    between atoms: _47  and  _48
REMARK   21  A    between atoms: _47  and  _50
REMARK   22  A    between atoms: _50  and  _51
REMARK   23  A    between atoms: _54  and  _56
REMARK   24  A    between atoms: _56  and  _57
REMARK   25  A    between atoms: _59  and  _61
REMARK   26  A    between atoms: _61  and  _62
REMARK   27  A    between atoms: _65  and  _67
REMARK   28  A    between atoms: _67  and  _68
REMARK   29  A    between atoms: _67  and  _70
REMARK   30  A    between atoms: _70  and  _71
REMARK   31  A    between atoms: _74  and  _76
REMARK   32  A    between atoms: _76  and  _77
REMARK   33  A    between atoms: _76  and  _79
REMARK   34  A    between atoms: _79  and  _80
REMARK   35  A    between atoms: _83  and  _85
REMARK   36  A    between atoms: _85  and  _86
REMARK   37  A    between atoms: _85  and  _88
REMARK   38  A    between atoms: _88  and  _89
REMARK   39  A    between atoms: _92  and  _94
REMARK   40  A    between atoms: _94  and  _95
REMARK   41  A    between atoms: _94  and  _97
REMARK   42  A    between atoms: _97  and  _98
REMARK   43  A    between atoms: _101  and  _103
REMARK   44  A    between atoms: _103  and  _104
REMARK   45  A    between atoms: _103  and  _106
REMARK   46  A    between atoms: _106  and  _107
REMARK   47  A    between atoms: _107  and  _108
REMARK   48  A    between atoms: _110  and  _112
REMARK   49  A    between atoms: _112  and  _113
REMARK   50  A    between atoms: _112  and  _115
REMARK   51  A    between atoms: _118  and  _120
REMARK   52  A    between atoms: _120  and  _121
REMARK   53  A    between atoms: _123  and  _125
REMARK   54  A    between atoms: _125  and  _126
REMARK   55  A    between atoms: _128  and  _130
REMARK   56  A    between atoms: _130  and  _131
REMARK   57  A    between atoms: _130  and  _133
REMARK   58  A    between atoms: _133  and  _134
REMARK   59  A    between atoms: _137  and  _139
REMARK   60  A    between atoms: _139  and  _140
REMARK   61  A    between atoms: _142  and  _144
REMARK   62  A    between atoms: _144  and  _145
REMARK   63  A    between atoms: _147  and  _149
REMARK   64  A    between atoms: _149  and  _150
REMARK   65  A    between atoms: _149  and  _152
REMARK   66  A    between atoms: _152  and  _153
REMARK   67  A    between atoms: _153  and  _154
REMARK   68  A    between atoms: _156  and  _158
REMARK   69  A    between atoms: _158  and  _159
REMARK   70  A    between atoms: _158  and  _161
REMARK   71  A    between atoms: _161  and  _162
REMARK   72  A    between atoms: _165  and  _167
REMARK   73  A    between atoms: _167  and  _168
REMARK   74  A    between atoms: _167  and  _170
REMARK   75  A    between atoms: _170  and  _171
REMARK   76  A    between atoms: _175  and  _176
REMARK   77  A    between atoms: _181  and  _183
REMARK   78  A    between atoms: _183  and  _184
REMARK   79  A    between atoms: _183  and  _186
REMARK   80  A    between atoms: _186  and  _187
REMARK   81  A    between atoms: _190  and  _192
REMARK   82  A    between atoms: _192  and  _193
REMARK   83  A    between atoms: _192  and  _195
REMARK   84  A    between atoms: _195  and  _196
REMARK   85  A    between atoms: _201  and  _203
REMARK   86  A    between atoms: _203  and  _204
REMARK   87  A    between atoms: _203  and  _206
REMARK   88  A    between atoms: _206  and  _207
REMARK   89  A    between atoms: _210  and  _212
REMARK   90  A    between atoms: _212  and  _213
REMARK   91  A    between atoms: _212  and  _215
REMARK   92  A    between atoms: _215  and  _216
REMARK   93  A    between atoms: _219  and  _221
REMARK   94  A    between atoms: _221  and  _222
REMARK   95  A    between atoms: _224  and  _226
REMARK   96  A    between atoms: _226  and  _227
REMARK   97  A    between atoms: _226  and  _229
REMARK   98  A    between atoms: _229  and  _230
REMARK   99  A    between atoms: _230  and  _231
REMARK  100  A    between atoms: _231  and  _232
REMARK  101  A    between atoms: _241  and  _243
REMARK  102  A    between atoms: _243  and  _244
REMARK  103  A    between atoms: _243  and  _246
REMARK  104  A    between atoms: _246  and  _247
REMARK  105  A    between atoms: _252  and  _254
REMARK  106  A    between atoms: _254  and  _255
REMARK  107  A    between atoms: _254  and  _257
REMARK  108  A    between atoms: _257  and  _258
REMARK  109  A    between atoms: _258  and  _259
REMARK  110  A    between atoms: _259  and  _260
REMARK  111  A    between atoms: _269  and  _271
REMARK  112  A    between atoms: _271  and  _272
REMARK  113  A    between atoms: _271  and  _274
REMARK  114  A    between atoms: _274  and  _275
REMARK  115  A    between atoms: _278  and  _280
REMARK  116  A    between atoms: _280  and  _281
REMARK  117  A    between atoms: _280  and  _283
REMARK  118  A    between atoms: _283  and  _284
REMARK  119  A    between atoms: _287  and  _289
REMARK  120  A    between atoms: _289  and  _290
REMARK  121  A    between atoms: _289  and  _292
REMARK  122  A    between atoms: _292  and  _293
REMARK  123  A    between atoms: _296  and  _298
REMARK  124  A    between atoms: _298  and  _299
REMARK  125  A    between atoms: _298  and  _301
REMARK  126  A    between atoms: _301  and  _302
REMARK  127  A    between atoms: _305  and  _307
REMARK  128  A    between atoms: _307  and  _308
REMARK  129  A    between atoms: _310  and  _312
REMARK  130  A    between atoms: _312  and  _313
REMARK  131  A    between atoms: _316  and  _318
REMARK  132  A    between atoms: _318  and  _319
REMARK  133  A    between atoms: _318  and  _321
REMARK  134  A    between atoms: _321  and  _322
REMARK  135  A    between atoms: _325  and  _327
REMARK  136  A    between atoms: _327  and  _328
REMARK  137  A    between atoms: _327  and  _330
REMARK  138  A    between atoms: _330  and  _331
REMARK  139  A    between atoms: _334  and  _336
REMARK  140  A    between atoms: _336  and  _337
REMARK  141  A    between atoms: _336  and  _339
REMARK  142  A    between atoms: _339  and  _340
REMARK  143  A    between atoms: _343  and  _345
REMARK  144  A    between atoms: _345  and  _346
REMARK  145  A    between atoms: _345  and  _348
REMARK  146  A    between atoms: _348  and  _349
REMARK  147  A    between atoms: _352  and  _354
REMARK  148  A    between atoms: _354  and  _355
REMARK  149  A    between atoms: _354  and  _357
REMARK  150  A    between atoms: _357  and  _358
REMARK  151  A    between atoms: _358  and  _359
REMARK  152  A    between atoms: _361  and  _363
REMARK  153  A    between atoms: _363  and  _364
REMARK  154  A    between atoms: _363  and  _366
REMARK  155  A    between atoms: _369  and  _371
REMARK  156  A    between atoms: _371  and  _372
REMARK  157  A    between atoms: _374  and  _376
REMARK  158  A    between atoms: _376  and  _377
REMARK  159  A    between atoms: _379  and  _381
REMARK  160  A    between atoms: _381  and  _382
REMARK  161  A    between atoms: _381  and  _384
REMARK  162  A    between atoms: _384  and  _385
REMARK  163  A    between atoms: _388  and  _390
REMARK  164  A    between atoms: _390  and  _391
REMARK  165  A    between atoms: _393  and  _395
REMARK  166  A    between atoms: _395  and  _396
REMARK  167  A    between atoms: _398  and  _400
REMARK  168  A    between atoms: _400  and  _401
REMARK  169  A    between atoms: _400  and  _403
REMARK  170  A    between atoms: _403  and  _404
REMARK  171  A    between atoms: _404  and  _405
REMARK  172  A    between atoms: _407  and  _409
REMARK  173  A    between atoms: _409  and  _410
REMARK  174  A    between atoms: _409  and  _412
REMARK  175  A    between atoms: _412  and  _413
REMARK  176  A    between atoms: _417  and  _418
REMARK  177  A    between atoms: _423  and  _425
REMARK  178  A    between atoms: _425  and  _426
REMARK  179  A    between atoms: _425  and  _428
REMARK  180  A    between atoms: _428  and  _429
REMARK  181  A    between atoms: _433  and  _434
REMARK  182  A    between atoms: _439  and  _441
REMARK  183  A    between atoms: _441  and  _442
REMARK  184  A    between atoms: _441  and  _444
REMARK  185  A    between atoms: _444  and  _445
REMARK  186  A    between atoms: _448  and  _450
REMARK  187  A    between atoms: _450  and  _451
REMARK  188  A    between atoms: _450  and  _453
REMARK  189  A    between atoms: _453  and  _454
REMARK  190  A    between atoms: _459  and  _461
REMARK  191  A    between atoms: _461  and  _462
REMARK  192  A    between atoms: _461  and  _464
REMARK  193  A    between atoms: _464  and  _465
REMARK  194  A    between atoms: _468  and  _470
REMARK  195  A    between atoms: _470  and  _471
REMARK  196  A    between atoms: _470  and  _473
REMARK  197  A    between atoms: _473  and  _474
REMARK  198  A    between atoms: _477  and  _479
REMARK  199  A    between atoms: _479  and  _480
REMARK  200  A    between atoms: _482  and  _484
REMARK  201  A    between atoms: _484  and  _485
REMARK  202  A    between atoms: _484  and  _487
REMARK  203  A    between atoms: _487  and  _488
REMARK  204  A    between atoms: _488  and  _489
REMARK  205  A    between atoms: _489  and  _490
REMARK  206  A    between atoms: _499  and  _501
REMARK  207  A    between atoms: _501  and  _502
REMARK  208  A    between atoms: _501  and  _504
REMARK  209  A    between atoms: _504  and  _505
REMARK                            x       y       z     vdW  Elec       q    Type
REMARK                         _______ _______ _______ _____ _____    ______ ____
ROOT
ATOM      1  NE  ARG A   1     -18.085  15.012  33.020  0.00  0.00    -0.265 N 
ATOM      2  HE  ARG A   1     -17.514  15.615  33.646  0.00  0.00    +0.259 HD
ATOM      3  CZ  ARG A   1     -17.803  13.718  32.964  0.00  0.00    +0.342 C 
ATOM      4  NH2 ARG A   1     -16.803  13.212  33.683  0.00  0.00    -0.292 N 
ATOM      5 HH21 ARG A   1     -16.236  13.833  34.295  0.00  0.00    +0.255 HD
ATOM      6 HH22 ARG A   1     -16.589  12.196  33.633  0.00  0.00    +0.255 HD
ATOM      7  NH1 ARG A   1     -18.535  12.931  32.187  0.00  0.00    -0.292 N 
ATOM      8 HH11 ARG A   1     -18.326  11.914  32.133  0.00  0.00    +0.255 HD
ATOM      9 HH12 ARG A   1     -19.318  13.331  31.632  0.00  0.00    +0.255 HD
ENDROOT
BRANCH   1  10
ATOM     10  CD  ARG A   1     -19.149  15.631  32.253  0.00  0.00    +0.174 C 
BRANCH  10  11
ATOM     11  CG  ARG A   1     -19.416  16.988  32.753  0.00  0.00    +0.045 C 
BRANCH  11  12
ATOM     12  CB  ARG A   1     -20.425  17.700  31.879  0.00  0.00    +0.029 C 
BRANCH  12  13
ATOM     13  CA  ARG A   1     -20.575  19.179  32.217  0.00  0.00    +0.133 C 
BRANCH  13  14
ATOM     14  N   ARG A   1     -21.210  19.353  33.532  0.00  0.00    -0.239 NA
ATOM     15  H   ARG A   1     -21.428  18.523  34.119  0.00  0.00    +0.142 HD
ENDBRANCH  13  14
BRANCH  13  16
ATOM     16  C   ARG A   1     -21.444  19.850  31.152  0.00  0.00    +0.224 C 
ATOM     17  O   ARG A   1     -22.651  19.617  31.125  0.00  0.00    -0.287 OA
ENDBRANCH  13  16
ENDBRANCH  12  13
ENDBRANCH  11  12
ENDBRANCH  10  11
ENDBRANCH   1  10
TORSDOF 6
REMARK  Name = ../refined-set-2016/3ttp/3ttp_pocket.pdb
REMARK  209 active torsions:
REMARK  status: ('A' for Active; 'I' for Inactive)
REMARK    1  A    between atoms: _1  and  _3
REMARK    2  A    between atoms: _3  and  _4
REMARK    3  A    between atoms: _3  and  _6
REMARK    4  A    between atoms: _6  and  _7
REMARK    5  A    between atoms: _7  and  _8
REMARK    6  A    between atoms: _8  and  _9
REMARK    7  A    between atoms: _18  and  _20
REMARK    8  A    between atoms: _20  and  _21
REMARK    9  A    between atoms: _20  and  _23
REMARK   10  A    between atoms: _23  and  _24
REMARK   11  A    between atoms: _27  and  _29
REMARK   12  A    between atoms: _29  and  _30
REMARK   13  A    between atoms: _29  and  _32
REMARK   14  A    between atoms: _32  and  _33
REMARK   15  A    between atoms: _36  and  _38
REMARK   16  A    between atoms: _38  and  _39
REMARK   17  A    between atoms: _38  and  _41
REMARK   18  A    between atoms: _41  and  _42
REMARK   19  A    between atoms: _45  and  _47
REMARK   20  A    between atoms: _47  and  _48
REMARK   21  A    between atoms: _47  and  _50
REMARK   22  A    between atoms: _50  and  _51
REMARK   23  A    between atoms: _54  and  _56
REMARK   24  A    between atoms: _56  and  _57
REMARK   25  A    between atoms: _59  and  _61
REMARK   26  A    between atoms: _61  and  _62
REMARK   27  A    between atoms: _65  and  _67
REMARK   28  A    between atoms: _67  and  _68
REMARK   29  A    between atoms: _67  and  _70
REMARK   30  A    between atoms: _70  and  _71
REMARK   31  A    between atoms: _74  and  _76
REMARK   32  A    between atoms: _76  and  _77
REMARK   33  A    between atoms: _76  and  _79
REMARK   34  A    between atoms: _79  and  _80
REMARK   35  A    between atoms: _83  and  _85
REMARK   36  A    between atoms: _85  and  _86
REMARK   37  A    between atoms: _85  and  _88
REMARK   38  A    between atoms: _88  and  _89
REMARK   39  A    between atoms: _92  and  _94
REMARK   40  A    between atoms: _94  and  _95
REMARK   41  A    between atoms: _94  and  _97
REMARK   42  A    between atoms: _97  and  _98
REMARK   43  A    between atoms: _101  and  _103
REMARK   44  A    between atoms: _103  and  _104
REMARK   45  A    between atoms: _103  and  _106
REMARK   46  A    between atoms: _106  and  _107
REMARK   47  A    between atoms: _107  and  _108
REMARK   48  A    between atoms: _110  and  _112
REMARK   49  A    between atoms: _112  and  _113
REMARK   50  A    between atoms: _112  and  _115
REMARK   51  A    between atoms: _118  and  _120
REMARK   52  A    between atoms: _120  and  _121
REMARK   53  A    between atoms: _123  and  _125
REMARK   54  A    between atoms: _125  and  _126
REMARK   55  A    between atoms: _128  and  _130
REMARK   56  A    between atoms: _130  and  _131
REMARK   57  A    between atoms: _130  and  _133
REMARK   58  A    between atoms: _133  and  _134
REMARK   59  A    between atoms: _137  and  _139
REMARK   60  A    between atoms: _139  and  _140
REMARK   61  A    between atoms: _142  and  _144
REMARK   62  A    between atoms: _144  and  _145
REMARK   63  A    between atoms: _147  and  _149
REMARK   64  A    between atoms: _149  and  _150
REMARK   65  A    between atoms: _149  and  _152
REMARK   66  A    between atoms: _152  and  _153
REMARK   67  A    between atoms: _153  and  _154
REMARK   68  A    between atoms: _156  and  _158
REMARK   69  A    between atoms: _158  and  _159
REMARK   70  A    between atoms: _158  and  _161
REMARK   71  A    between atoms: _161  and  _162
REMARK   72  A    between atoms: _165  and  _167
REMARK   73  A    between atoms: _167  and  _168
REMARK   74  A    between atoms: _167  and  _170
REMARK   75  A    between atoms: _170  and  _171
REMARK   76  A    between atoms: _175  and  _176
REMARK   77  A    between atoms: _181  and  _183
REMARK   78  A    between atoms: _183  and  _184
REMARK   79  A    between atoms: _183  and  _186
REMARK   80  A    between atoms: _186  and  _187
REMARK   81  A    between atoms: _190  and  _192
REMARK   82  A    between atoms: _192  and  _193
REMARK   83  A    between atoms: _192  and  _195
REMARK   84  A    between atoms: _195  and  _196
REMARK   85  A    between atoms: _201  and  _203
REMARK   86  A    between atoms: _203  and  _204
REMARK   87  A    between atoms: _203  and  _206
REMARK   88  A    between atoms: _206  and  _207
REMARK   89  A    between atoms: _210  and  _212
REMARK   90  A    between atoms: _212  and  _213
REMARK   91  A    between atoms: _212  and  _215
REMARK   92  A    between atoms: _215  and  _216
REMARK   93  A    between atoms: _219  and  _221
REMARK   94  A    between atoms: _221  and  _222
REMARK   95  A    between atoms: _224  and  _226
REMARK   96  A    between atoms: _226  and  _227
REMARK   97  A    between atoms: _226  and  _229
REMARK   98  A    between atoms: _229  and  _230
REMARK   99  A    between atoms: _230  and  _231
REMARK  100  A    between atoms: _231  and  _232
REMARK  101  A    between atoms: _241  and  _243
REMARK  102  A    between atoms: _243  and  _244
REMARK  103  A    between atoms: _243  and  _246
REMARK  104  A    between atoms: _246  and  _247
REMARK  105  A    between atoms: _252  and  _254
REMARK  106  A    between atoms: _254  and  _255
REMARK  107  A    between atoms: _254  and  _257
REMARK  108  A    between atoms: _257  and  _258
REMARK  109  A    between atoms: _258  and  _259
REMARK  110  A    between atoms: _259  and  _260
REMARK  111  A    between atoms: _269  and  _271
REMARK  112  A    between atoms: _271  and  _272
REMARK  113  A    between atoms: _271  and  _274
REMARK  114  A    between atoms: _274  and  _275
REMARK  115  A    between atoms: _278  and  _280
REMARK  116  A    between atoms: _280  and  _281
REMARK  117  A    between atoms: _280  and  _283
REMARK  118  A    between atoms: _283  and  _284
REMARK  119  A    between atoms: _287  and  _289
REMARK  120  A    between atoms: _289  and  _290
REMARK  121  A    between atoms: _289  and  _292
REMARK  122  A    between atoms: _292  and  _293
REMARK  123  A    between atoms: _296  and  _298
REMARK  124  A    between atoms: _298  and  _299
REMARK  125  A    between atoms: _298  and  _301
REMARK  126  A    between atoms: _301  and  _302
REMARK  127  A    between atoms: _305  and  _307
REMARK  128  A    between atoms: _307  and  _308
REMARK  129  A    between atoms: _310  and  _312
REMARK  130  A    between atoms: _312  and  _313
REMARK  131  A    between atoms: _316  and  _318
REMARK  132  A    between atoms: _318  and  _319
REMARK  133  A    between atoms: _318  and  _321
REMARK  134  A    between atoms: _321  and  _322
REMARK  135  A    between atoms: _325  and  _327
REMARK  136  A    between atoms: _327  and  _328
REMARK  137  A    between atoms: _327  and  _330
REMARK  138  A    between atoms: _330  and  _331
REMARK  139  A    between atoms: _334  and  _336
REMARK  140  A    between atoms: _336  and  _337
REMARK  141  A    between atoms: _336  and  _339
REMARK  142  A    between atoms: _339  and  _340
REMARK  143  A    between atoms: _343  and  _345
REMARK  144  A    between atoms: _345  and  _346
REMARK  145  A    between atoms: _345  and  _348
REMARK  146  A    between atoms: _348  and  _349
REMARK  147  A    between atoms: _352  and  _354
REMARK  148  A    between atoms: _354  and  _355
REMARK  149  A    between atoms: _354  and  _357
REMARK  150  A    between atoms: _357  and  _358
REMARK  151  A    between atoms: _358  and  _359
REMARK  152  A    between atoms: _361  and  _363
REMARK  153  A    between atoms: _363  and  _364
REMARK  154  A    between atoms: _363  and  _366
REMARK  155  A    between atoms: _369  and  _371
REMARK  156  A    between atoms: _371  and  _372
REMARK  157  A    between atoms: _374  and  _376
REMARK  158  A    between atoms: _376  and  _377
REMARK  159  A    between atoms: _379  and  _381
REMARK  160  A    between atoms: _381  and  _382
REMARK  161  A    between atoms: _381  and  _384
REMARK  162  A    between atoms: _384  and  _385
REMARK  163  A    between atoms: _388  and  _390
REMARK  164  A    between atoms: _390  and  _391
REMARK  165  A    between atoms: _393  and  _395
REMARK  166  A    between atoms: _395  and  _396
REMARK  167  A    between atoms: _398  and  _400
REMARK  168  A    between atoms: _400  and  _401
REMARK  169  A    between atoms: _400  and  _403
REMARK  170  A    between atoms: _403  and  _404
REMARK  171  A    between atoms: _404  and  _405
REMARK  172  A    between atoms: _407  and  _409
REMARK  173  A    between atoms: _409  and  _410
REMARK  174  A    between atoms: _409  and  _412
REMARK  175  A    between atoms: _412  and  _413
REMARK  176  A    between atoms: _417  and  _418
REMARK  177  A    between atoms: _423  and  _425
REMARK  178  A    between atoms: _425  and  _426
REMARK  179  A    between atoms: _425  and  _428
REMARK  180  A    between atoms: _428  and  _429
REMARK  181  A    between atoms: _433  and  _434
REMARK  182  A    between atoms: _439  and  _441
REMARK  183  A    between atoms: _441  and  _442
REMARK  184  A    between atoms: _441  and  _444
REMARK  185  A    between atoms: _444  and  _445
REMARK  186  A    between atoms: _448  and  _450
REMARK  187  A    between atoms: _450  and  _451
REMARK  188  A    between atoms: _450  and  _453
REMARK  189  A    between atoms: _453  and  _454
REMARK  190  A    between atoms: _459  and  _461
REMARK  191  A    between atoms: _461  and  _462
REMARK  192  A    between atoms: _461  and  _464
REMARK  193  A    between atoms: _464  and  _465
REMARK  194  A    between atoms: _468  and  _470
REMARK  195  A    between atoms: _470  and  _471
REMARK  196  A    between atoms: _470  and  _473
REMARK  197  A    between atoms: _473  and  _474
REMARK  198  A    between atoms: _477  and  _479
REMARK  199  A    between atoms: _479  and  _480
REMARK  200  A    between atoms: _482  and  _484
REMARK  201  A    between atoms: _484  and  _485
REMARK  202  A    between atoms: _484  and  _487
REMARK  203  A    between atoms: _487  and  _488
REMARK  204  A    between atoms: _488  and  _489
REMARK  205  A    between atoms: _489  and  _490
REMARK  206  A    between atoms: _499  and  _501
REMARK  207  A    between atoms: _501  and  _502
REMARK  208  A    between atoms: _501  and  _504
REMARK  209  A    between atoms: _504  and  _505
REMARK                            x       y       z     vdW  Elec       q    Type
REMARK                         _______ _______ _______ _____ _____    ______ ____
ROOT
ATOM      1  C   GLY A   5      -9.476  21.105  24.411  0.00  0.00    +0.243 C 
ATOM      2  O   GLY A   5      -8.434  20.466  24.372  0.00  0.00    -0.273 OA
ATOM      3  N   ALA A   6     -10.434  20.946  23.503  0.00  0.00    -0.297 N 
ATOM      4  H   ALA A   6     -11.329  21.465  23.609  0.00  0.00    +0.150 HD
ENDROOT
BRANCH   3   5
ATOM      5  CA  ALA A   6     -10.253  20.055  22.359  0.00  0.00    +0.149 C 
ATOM      6  CB  ALA A   6     -11.422  19.063  22.270  0.00  0.00    +0.031 C 
BRANCH   5   7
ATOM      7  C   ALA A   6     -10.121  20.844  21.054  0.00  0.00    +0.241 C 
ATOM      8  O   ALA A   6     -10.992  21.669  20.730  0.00  0.00    -0.273 OA
ATOM      9  N   ASP A   7      -9.047  20.584  20.300  0.00  0.00    -0.297 N 
ATOM     10  H   ASP A   7      -8.339  19.908  20.651  0.00  0.00    +0.150 HD
BRANCH   9  11
ATOM     11  CA  ASP A   7      -8.833  21.219  18.996  0.00  0.00    +0.160 C 
BRANCH  11  12
ATOM     12  C   ASP A   7      -9.881  20.751  18.008  0.00  0.00    +0.241 C 
ATOM     13  N   ASP A   8     -10.222  19.464  18.116  0.00  0.00    -0.297 N 
ATOM     14  H   ASP A   8      -9.942  18.945  18.972  0.00  0.00    +0.150 HD
ATOM     15  O   ASP A   7     -10.352  21.541  17.166  0.00  0.00    -0.273 OA
BRANCH  13  16
ATOM     16  CA  ASP A   8     -10.968  18.759  17.088  0.00  0.00    +0.160 C 
BRANCH  16  17
ATOM     17  C   ASP A   8     -12.148  18.005  17.680  0.00  0.00    +0.241 C 
ATOM     18  O   ASP A   8     -12.135  17.579  18.834  0.00  0.00    -0.273 OA
ATOM     19  N   THR A   9     -13.168  17.852  16.859  0.00  0.00    -0.295 N 
ATOM     20  H   THR A   9     -13.070  18.194  15.882  0.00  0.00    +0.150 HD
BRANCH  19  21
ATOM     21  CA  THR A   9     -14.414  17.235  17.246  0.00  0.00    +0.176 C 
BRANCH  21  22
ATOM     22  C   THR A   9     -14.323  15.740  17.008  0.00  0.00    +0.243 C 
ATOM     23  N   ILE A  10     -14.648  14.966  18.032  0.00  0.00    -0.298 N 
ATOM     24  H   ILE A  10     -14.980  15.400  18.917  0.00  0.00    +0.150 HD
ATOM     25  O   THR A   9     -13.996  15.309  15.913  0.00  0.00    -0.273 OA
BRANCH  23  26
ATOM     26  CA  ILE A  10     -14.548  13.529  17.939  0.00  0.00    +0.137 C 
BRANCH  26  27
ATOM     27  CB  ILE A  10     -13.186  13.028  18.491  0.00  0.00    +0.026 C 
ATOM     28  CG2 ILE A  10     -12.831  13.706  19.789  0.00  0.00    +0.002 C 
BRANCH  27  29
ATOM     29  CG1 ILE A  10     -13.198  11.512  18.699  0.00  0.00    +0.002 C 
ATOM     30  CD1 ILE A  10     -11.826  10.928  18.547  0.00  0.00    +0.000 C 
ENDBRANCH  27  29
ENDBRANCH  26  27
BRANCH  26  31
ATOM     31  C   ILE A  10     -15.713  12.756  18.561  0.00  0.00    +0.227 C 
ATOM     32  O   ILE A  10     -16.197  13.068  19.643  0.00  0.00    -0.286 OA
ENDBRANCH  26  31
ENDBRANCH  23  26
ENDBRANCH  21  22
BRANCH  21  33
ATOM     33  CB  THR A   9     -15.553  17.845  16.391  0.00  0.00    +0.137 C 
ATOM     34  CG2 THR A   9     -16.865  17.090  16.602  0.00  0.00    +0.034 C 
BRANCH  33  35
ATOM     35  OG1 THR A   9     -15.696  19.225  16.768  0.00  0.00    -0.382 OA
ATOM     36  HG1 THR A   9     -14.845  19.702  16.598  0.00  0.00    +0.210 HD
ENDBRANCH  33  35
ENDBRANCH  21  33
ENDBRANCH  19  21
ENDBRANCH  16  17
BRANCH  16  37
ATOM     37  CB  ASP A   8     -10.071  17.781  16.310  0.00  0.00    +0.143 C 
BRANCH  37  38
ATOM     38  CG  ASP A   8      -8.875  18.470  15.640  0.00  0.00    +0.367 C 
ATOM     39  OD2 ASP A   8      -7.721  18.071  15.919  0.00  0.00    -0.246 OA
ATOM     40  OD1 ASP A   8      -9.073  19.392  14.820  0.00  0.00    -0.246 OA
ENDBRANCH  37  38
ENDBRANCH  16  37
ENDBRANCH  13  16
ENDBRANCH  11  12
BRANCH  11  41
ATOM     41  CB  ASP A   7      -7.480  20.819  18.400  0.00  0.00    +0.143 C 
BRANCH  41  42
ATOM     42  CG  ASP A   7      -6.293  21.393  19.165  0.00  0.00    +0.367 C 
ATOM     43  OD2 ASP A   7      -6.478  22.157  20.137  0.00  0.00    -0.246 OA
ATOM     44  OD1 ASP A   7      -5.165  21.063  18.778  0.00  0.00    -0.246 OA
ENDBRANCH  41  42
ENDBRANCH  11  41
ENDBRANCH   9  11
ENDBRANCH   5   7
ENDBRANCH   3   5
BRANCH   1  45
ATOM     45  CA  GLY A   5      -9.725  22.098  25.524  0.00  0.00    +0.176 C 
BRANCH  45  47
ATOM     46  C   THR A   4     -11.303  23.765  24.683  0.00  0.00    +0.243 C 
ATOM     47  N   GLY A   5     -11.035  22.756  25.514  0.00  0.00    -0.295 N 
ATOM     48  H   GLY A   5     -11.773  22.429  26.170  0.00  0.00    +0.150 HD
ATOM     49  O   THR A   4     -10.450  24.239  23.927  0.00  0.00    -0.273 OA
BRANCH  46  50
ATOM     50  CA  THR A   4     -12.741  24.289  24.669  0.00  0.00    +0.176 C 
BRANCH  50  52
ATOM     51  C   ASP A   3     -13.929  22.139  24.424  0.00  0.00    +0.241 C 
ATOM     52  N   THR A   4     -13.707  23.272  25.103  0.00  0.00    -0.295 N 
ATOM     53  H   THR A   4     -14.244  23.439  25.978  0.00  0.00    +0.150 HD
ATOM     54  O   ASP A   3     -13.391  21.848  23.344  0.00  0.00    -0.273 OA
BRANCH  51  55
ATOM     55  CA  ASP A   3     -14.918  21.185  25.046  0.00  0.00    +0.160 C 
BRANCH  55  58
ATOM     56  C   LEU A   2     -17.317  21.507  25.299  0.00  0.00    +0.241 C 
ATOM     57  O   LEU A   2     -17.229  21.614  26.523  0.00  0.00    -0.273 OA
ATOM     58  N   ASP A   3     -16.258  21.437  24.500  0.00  0.00    -0.297 N 
ATOM     59  H   ASP A   3     -16.379  21.562  23.475  0.00  0.00    +0.150 HD
BRANCH  56  60
ATOM     60  CA  LEU A   2     -18.669  21.371  24.624  0.00  0.00    +0.149 C 
BRANCH  60  62
ATOM     61  C   LEU A   1     -18.891  18.949  24.700  0.00  0.00    +0.238 C 
ATOM     62  N   LEU A   2     -19.289  20.142  25.115  0.00  0.00    -0.297 N 
ATOM     63  H   LEU A   2     -20.062  20.206  25.808  0.00  0.00    +0.150 HD
ATOM     64  O   LEU A   1     -18.033  18.795  23.819  0.00  0.00    -0.274 OA
BRANCH  61  65
ATOM     65  CA  LEU A   1     -19.535  17.741  25.386  0.00  0.00    +0.145 C 
BRANCH  65  66
ATOM     66  N   LEU A   1     -20.113  16.852  24.421  0.00  0.00    -0.238 NA
ATOM     67  H   LEU A   1     -19.475  16.179  23.951  0.00  0.00    +0.142 HD
ENDBRANCH  65  66
BRANCH  65  68
ATOM     68  CB  LEU A   1     -18.448  16.964  26.158  0.00  0.00    +0.026 C 
BRANCH  68  69
ATOM     69  CG  LEU A   1     -17.803  17.665  27.354  0.00  0.00    +0.002 C 
ATOM     70  CD2 LEU A   1     -18.800  17.797  28.485  0.00  0.00    +0.000 C 
ATOM     71  CD1 LEU A   1     -16.516  16.939  27.806  0.00  0.00    +0.000 C 
ENDBRANCH  68  69
ENDBRANCH  65  68
ENDBRANCH  61  65
ENDBRANCH  60  62
BRANCH  60  72
ATOM     72  CB  LEU A   2     -19.566  22.568  24.910  0.00  0.00    +0.029 C 
BRANCH  72  73
ATOM     73  CG  LEU A   2     -20.958  22.555  24.280  0.00  0.00    +0.002 C 
ATOM     74  CD2 LEU A   2     -21.607  23.938  24.494  0.00  0.00    +0.000 C 
ATOM     75  CD1 LEU A   2     -21.012  22.157  22.793  0.00  0.00    +0.000 C 
ENDBRANCH  72  73
ENDBRANCH  60  72
ENDBRANCH  56  60
ENDBRANCH  55  58
BRANCH  55  76
ATOM     76  CB  ASP A   3     -14.481  19.749  24.738  0.00  0.00    +0.143 C 
BRANCH  76  77
ATOM     77  CG  ASP A   3     -13.252  19.321  25.512  0.00  0.00    +0.367 C 
ATOM     78  OD2 ASP A   3     -12.570  20.156  26.134  0.00  0.00    -0.246 OA
ATOM     79  OD1 ASP A   3     -12.962  18.115  25.520  0.00  0.00    -0.246 OA
ENDBRANCH  76  77
ENDBRANCH  55  76
ENDBRANCH  51  55
ENDBRANCH  50  52
BRANCH  50  80
ATOM     80  CB  THR A   4     -12.897  25.594  25.499  0.00  0.00    +0.137 C 
ATOM     81  CG2 THR A   4     -14.375  26.094  25.407  0.00  0.00    +0.034 C 
BRANCH  80  82
ATOM     82  OG1 THR A   4     -12.527  25.375  26.880  0.00  0.00    -0.382 OA
ATOM     83  HG1 THR A   4     -11.583  25.080  26.925  0.00  0.00    +0.210 HD
ENDBRANCH  80  82
ENDBRANCH  50  80
ENDBRANCH  46  50
ENDBRANCH  45  47
ENDBRANCH   1  45
TORSDOF 36
REMARK  Name = ../refined-set-2016/3ttp/3ttp_pocket.pdb
REMARK  209 active torsions:
REMARK  status: ('A' for Active; 'I' for Inactive)
REMARK    1  A    between atoms: _1  and  _3
REMARK    2  A    between atoms: _3  and  _4
REMARK    3  A    between atoms: _3  and  _6
REMARK    4  A    between atoms: _6  and  _7
REMARK    5  A    between atoms: _7  and  _8
REMARK    6  A    between atoms: _8  and  _9
REMARK    7  A    between atoms: _18  and  _20
REMARK    8  A    between atoms: _20  and  _21
REMARK    9  A    between atoms: _20  and  _23
REMARK   10  A    between atoms: _23  and  _24
REMARK   11  A    between atoms: _27  and  _29
REMARK   12  A    between atoms: _29  and  _30
REMARK   13  A    between atoms: _29  and  _32
REMARK   14  A    between atoms: _32  and  _33
REMARK   15  A    between atoms: _36  and  _38
REMARK   16  A    between atoms: _38  and  _39
REMARK   17  A    between atoms: _38  and  _41
REMARK   18  A    between atoms: _41  and  _42
REMARK   19  A    between atoms: _45  and  _47
REMARK   20  A    between atoms: _47  and  _48
REMARK   21  A    between atoms: _47  and  _50
REMARK   22  A    between atoms: _50  and  _51
REMARK   23  A    between atoms: _54  and  _56
REMARK   24  A    between atoms: _56  and  _57
REMARK   25  A    between atoms: _59  and  _61
REMARK   26  A    between atoms: _61  and  _62
REMARK   27  A    between atoms: _65  and  _67
REMARK   28  A    between atoms: _67  and  _68
REMARK   29  A    between atoms: _67  and  _70
REMARK   30  A    between atoms: _70  and  _71
REMARK   31  A    between atoms: _74  and  _76
REMARK   32  A    between atoms: _76  and  _77
REMARK   33  A    between atoms: _76  and  _79
REMARK   34  A    between atoms: _79  and  _80
REMARK   35  A    between atoms: _83  and  _85
REMARK   36  A    between atoms: _85  and  _86
REMARK   37  A    between atoms: _85  and  _88
REMARK   38  A    between atoms: _88  and  _89
REMARK   39  A    between atoms: _92  and  _94
REMARK   40  A    between atoms: _94  and  _95
REMARK   41  A    between atoms: _94  and  _97
REMARK   42  A    between atoms: _97  and  _98
REMARK   43  A    between atoms: _101  and  _103
REMARK   44  A    between atoms: _103  and  _104
REMARK   45  A    between atoms: _103  and  _106
REMARK   46  A    between atoms: _106  and  _107
REMARK   47  A    between atoms: _107  and  _108
REMARK   48  A    between atoms: _110  and  _112
REMARK   49  A    between atoms: _112  and  _113
REMARK   50  A    between atoms: _112  and  _115
REMARK   51  A    between atoms: _118  and  _120
REMARK   52  A    between atoms: _120  and  _121
REMARK   53  A    between atoms: _123  and  _125
REMARK   54  A    between atoms: _125  and  _126
REMARK   55  A    between atoms: _128  and  _130
REMARK   56  A    between atoms: _130  and  _131
REMARK   57  A    between atoms: _130  and  _133
REMARK   58  A    between atoms: _133  and  _134
REMARK   59  A    between atoms: _137  and  _139
REMARK   60  A    between atoms: _139  and  _140
REMARK   61  A    between atoms: _142  and  _144
REMARK   62  A    between atoms: _144  and  _145
REMARK   63  A    between atoms: _147  and  _149
REMARK   64  A    between atoms: _149  and  _150
REMARK   65  A    between atoms: _149  and  _152
REMARK   66  A    between atoms: _152  and  _153
REMARK   67  A    between atoms: _153  and  _154
REMARK   68  A    between atoms: _156  and  _158
REMARK   69  A    between atoms: _158  and  _159
REMARK   70  A    between atoms: _158  and  _161
REMARK   71  A    between atoms: _161  and  _162
REMARK   72  A    between atoms: _165  and  _167
REMARK   73  A    between atoms: _167  and  _168
REMARK   74  A    between atoms: _167  and  _170
REMARK   75  A    between atoms: _170  and  _171
REMARK   76  A    between atoms: _175  and  _176
REMARK   77  A    between atoms: _181  and  _183
REMARK   78  A    between atoms: _183  and  _184
REMARK   79  A    between atoms: _183  and  _186
REMARK   80  A    between atoms: _186  and  _187
REMARK   81  A    between atoms: _190  and  _192
REMARK   82  A    between atoms: _192  and  _193
REMARK   83  A    between atoms: _192  and  _195
REMARK   84  A    between atoms: _195  and  _196
REMARK   85  A    between atoms: _201  and  _203
REMARK   86  A    between atoms: _203  and  _204
REMARK   87  A    between atoms: _203  and  _206
REMARK   88  A    between atoms: _206  and  _207
REMARK   89  A    between atoms: _210  and  _212
REMARK   90  A    between atoms: _212  and  _213
REMARK   91  A    between atoms: _212  and  _215
REMARK   92  A    between atoms: _215  and  _216
REMARK   93  A    between atoms: _219  and  _221
REMARK   94  A    between atoms: _221  and  _222
REMARK   95  A    between atoms: _224  and  _226
REMARK   96  A    between atoms: _226  and  _227
REMARK   97  A    between atoms: _226  and  _229
REMARK   98  A    between atoms: _229  and  _230
REMARK   99  A    between atoms: _230  and  _231
REMARK  100  A    between atoms: _231  and  _232
REMARK  101  A    between atoms: _241  and  _243
REMARK  102  A    between atoms: _243  and  _244
REMARK  103  A    between atoms: _243  and  _246
REMARK  104  A    between atoms: _246  and  _247
REMARK  105  A    between atoms: _252  and  _254
REMARK  106  A    between atoms: _254  and  _255
REMARK  107  A    between atoms: _254  and  _257
REMARK  108  A    between atoms: _257  and  _258
REMARK  109  A    between atoms: _258  and  _259
REMARK  110  A    between atoms: _259  and  _260
REMARK  111  A    between atoms: _269  and  _271
REMARK  112  A    between atoms: _271  and  _272
REMARK  113  A    between atoms: _271  and  _274
REMARK  114  A    between atoms: _274  and  _275
REMARK  115  A    between atoms: _278  and  _280
REMARK  116  A    between atoms: _280  and  _281
REMARK  117  A    between atoms: _280  and  _283
REMARK  118  A    between atoms: _283  and  _284
REMARK  119  A    between atoms: _287  and  _289
REMARK  120  A    between atoms: _289  and  _290
REMARK  121  A    between atoms: _289  and  _292
REMARK  122  A    between atoms: _292  and  _293
REMARK  123  A    between atoms: _296  and  _298
REMARK  124  A    between atoms: _298  and  _299
REMARK  125  A    between atoms: _298  and  _301
REMARK  126  A    between atoms: _301  and  _302
REMARK  127  A    between atoms: _305  and  _307
REMARK  128  A    between atoms: _307  and  _308
REMARK  129  A    between atoms: _310  and  _312
REMARK  130  A    between atoms: _312  and  _313
REMARK  131  A    between atoms: _316  and  _318
REMARK  132  A    between atoms: _318  and  _319
REMARK  133  A    between atoms: _318  and  _321
REMARK  134  A    between atoms: _321  and  _322
REMARK  135  A    between atoms: _325  and  _327
REMARK  136  A    between atoms: _327  and  _328
REMARK  137  A    between atoms: _327  and  _330
REMARK  138  A    between atoms: _330  and  _331
REMARK  139  A    between atoms: _334  and  _336
REMARK  140  A    between atoms: _336  and  _337
REMARK  141  A    between atoms: _336  and  _339
REMARK  142  A    between atoms: _339  and  _340
REMARK  143  A    between atoms: _343  and  _345
REMARK  144  A    between atoms: _345  and  _346
REMARK  145  A    between atoms: _345  and  _348
REMARK  146  A    between atoms: _348  and  _349
REMARK  147  A    between atoms: _352  and  _354
REMARK  148  A    between atoms: _354  and  _355
REMARK  149  A    between atoms: _354  and  _357
REMARK  150  A    between atoms: _357  and  _358
REMARK  151  A    between atoms: _358  and  _359
REMARK  152  A    between atoms: _361  and  _363
REMARK  153  A    between atoms: _363  and  _364
REMARK  154  A    between atoms: _363  and  _366
REMARK  155  A    between atoms: _369  and  _371
REMARK  156  A    between atoms: _371  and  _372
REMARK  157  A    between atoms: _374  and  _376
REMARK  158  A    between atoms: _376  and  _377
REMARK  159  A    between atoms: _379  and  _381
REMARK  160  A    between atoms: _381  and  _382
REMARK  161  A    between atoms: _381  and  _384
REMARK  162  A    between atoms: _384  and  _385
REMARK  163  A    between atoms: _388  and  _390
REMARK  164  A    between atoms: _390  and  _391
REMARK  165  A    between atoms: _393  and  _395
REMARK  166  A    between atoms: _395  and  _396
REMARK  167  A    between atoms: _398  and  _400
REMARK  168  A    between atoms: _400  and  _401
REMARK  169  A    between atoms: _400  and  _403
REMARK  170  A    between atoms: _403  and  _404
REMARK  171  A    between atoms: _404  and  _405
REMARK  172  A    between atoms: _407  and  _409
REMARK  173  A    between atoms: _409  and  _410
REMARK  174  A    between atoms: _409  and  _412
REMARK  175  A    between atoms: _412  and  _413
REMARK  176  A    between atoms: _417  and  _418
REMARK  177  A    between atoms: _423  and  _425
REMARK  178  A    between atoms: _425  and  _426
REMARK  179  A    between atoms: _425  and  _428
REMARK  180  A    between atoms: _428  and  _429
REMARK  181  A    between atoms: _433  and  _434
REMARK  182  A    between atoms: _439  and  _441
REMARK  183  A    between atoms: _441  and  _442
REMARK  184  A    between atoms: _441  and  _444
REMARK  185  A    between atoms: _444  and  _445
REMARK  186  A    between atoms: _448  and  _450
REMARK  187  A    between atoms: _450  and  _451
REMARK  188  A    between atoms: _450  and  _453
REMARK  189  A    between atoms: _453  and  _454
REMARK  190  A    between atoms: _459  and  _461
REMARK  191  A    between atoms: _461  and  _462
REMARK  192  A    between atoms: _461  and  _464
REMARK  193  A    between atoms: _464  and  _465
REMARK  194  A    between atoms: _468  and  _470
REMARK  195  A    between atoms: _470  and  _471
REMARK  196  A    between atoms: _470  and  _473
REMARK  197  A    between atoms: _473  and  _474
REMARK  198  A    between atoms: _477  and  _479
REMARK  199  A    between atoms: _479  and  _480
REMARK  200  A    between atoms: _482  and  _484
REMARK  201  A    between atoms: _484  and  _485
REMARK  202  A    between atoms: _484  and  _487
REMARK  203  A    between atoms: _487  and  _488
REMARK  204  A    between atoms: _488  and  _489
REMARK  205  A    between atoms: _489  and  _490
REMARK  206  A    between atoms: _499  and  _501
REMARK  207  A    between atoms: _501  and  _502
REMARK  208  A    between atoms: _501  and  _504
REMARK  209  A    between atoms: _504  and  _505
REMARK                            x       y       z     vdW  Elec       q    Type
REMARK                         _______ _______ _______ _____ _____    ______ ____
ROOT
ATOM      1  C   GLY A   3      -3.999  12.994  22.888  0.00  0.00    +0.243 C 
ATOM      2  N   GLY A   4      -3.930  12.391  24.060  0.00  0.00    -0.295 N 
ATOM      3  H   GLY A   4      -3.280  11.592  24.205  0.00  0.00    +0.150 HD
ATOM      4  O   GLY A   3      -4.714  13.956  22.684  0.00  0.00    -0.273 OA
ENDROOT
BRANCH   2   5
ATOM      5  CA  GLY A   4      -4.764  12.854  25.129  0.00  0.00    +0.176 C 
BRANCH   5   6
ATOM      6  C   GLY A   4      -4.123  12.771  26.464  0.00  0.00    +0.243 C 
ATOM      7  N   ILE A   5      -4.912  13.032  27.494  0.00  0.00    -0.297 N 
ATOM      8  H   ILE A   5      -5.922  13.226  27.340  0.00  0.00    +0.150 HD
ATOM      9  O   GLY A   4      -2.930  12.479  26.574  0.00  0.00    -0.273 OA
BRANCH   7  10
ATOM     10  CA  ILE A   5      -4.371  13.047  28.824  0.00  0.00    +0.149 C 
BRANCH  10  11
ATOM     11  C   ILE A   5      -3.577  11.770  29.091  0.00  0.00    +0.241 C 
ATOM     12  O   ILE A   5      -2.464  11.857  29.559  0.00  0.00    -0.273 OA
ATOM     13  N   GLY A   6      -4.124  10.598  28.752  0.00  0.00    -0.295 N 
ATOM     14  H   GLY A   6      -5.021  10.583  28.225  0.00  0.00    +0.150 HD
BRANCH  13  15
ATOM     15  CA  GLY A   6      -3.473   9.330  29.115  0.00  0.00    +0.176 C 
BRANCH  15  16
ATOM     16  C   GLY A   6      -2.846   8.507  27.994  0.00  0.00    +0.243 C 
ATOM     17  O   GLY A   6      -2.500   7.332  28.185  0.00  0.00    -0.273 OA
ATOM     18  N   GLY A   7      -2.668   9.097  26.824  0.00  0.00    -0.296 N 
ATOM     19  H   GLY A   7      -2.898  10.103  26.699  0.00  0.00    +0.150 HD
BRANCH  18  20
ATOM     20  CA  GLY A   7      -2.145   8.315  25.715  0.00  0.00    +0.163 C 
BRANCH  20  21
ATOM     21  C   GLY A   7      -2.700   8.754  24.380  0.00  0.00    +0.229 C 
ATOM     22  O   GLY A   7      -3.249   9.822  24.275  0.00  0.00    -0.286 OA
ENDBRANCH  20  21
ENDBRANCH  18  20
ENDBRANCH  15  16
ENDBRANCH  13  15
ENDBRANCH  10  11
BRANCH  10  23
ATOM     23  CB  ILE A   5      -5.433  13.342  29.911  0.00  0.00    +0.027 C 
ATOM     24  CG2 ILE A   5      -6.017  12.066  30.495  0.00  0.00    +0.002 C 
BRANCH  23  25
ATOM     25  CG1 ILE A   5      -4.825  14.205  31.013  0.00  0.00    +0.002 C 
ATOM     26  CD1 ILE A   5      -5.846  14.918  31.847  0.00  0.00    +0.000 C 
ENDBRANCH  23  25
ENDBRANCH  10  23
ENDBRANCH   7  10
ENDBRANCH   5   6
ENDBRANCH   2   5
BRANCH   1  27
ATOM     27  CA  GLY A   3      -3.154  12.440  21.784  0.00  0.00    +0.176 C 
BRANCH  27  29
ATOM     28  C   VAL A   2      -4.463  11.652  19.905  0.00  0.00    +0.241 C 
ATOM     29  N   GLY A   3      -3.875  12.651  20.543  0.00  0.00    -0.295 N 
ATOM     30  H   GLY A   3      -3.931  13.610  20.145  0.00  0.00    +0.150 HD
ATOM     31  O   VAL A   2      -4.402  10.477  20.279  0.00  0.00    -0.273 OA
BRANCH  28  32
ATOM     32  CA  VAL A   2      -5.212  12.033  18.640  0.00  0.00    +0.148 C 
BRANCH  32  34
ATOM     33  C   MET A   1      -4.532  11.307  16.458  0.00  0.00    +0.238 C 
ATOM     34  N   VAL A   2      -5.011  11.005  17.649  0.00  0.00    -0.297 N 
ATOM     35  H   VAL A   2      -5.246  10.017  17.875  0.00  0.00    +0.150 HD
ATOM     36  O   MET A   1      -4.427  12.470  16.052  0.00  0.00    -0.274 OA
BRANCH  33  37
ATOM     37  CA  MET A   1      -4.162  10.130  15.578  0.00  0.00    +0.146 C 
BRANCH  37  38
ATOM     38  N   MET A   1      -4.326  10.501  14.200  0.00  0.00    -0.238 NA
ATOM     39  H   MET A   1      -3.979  11.426  13.874  0.00  0.00    +0.142 HD
ENDBRANCH  37  38
BRANCH  37  40
ATOM     40  CB  MET A   1      -2.726   9.653  15.828  0.00  0.00    +0.038 C 
BRANCH  40  41
ATOM     41  CG  MET A   1      -2.629   8.628  16.937  0.00  0.00    +0.060 C 
BRANCH  41  42
ATOM     42  SD  MET A   1      -1.296   7.434  16.769  0.00  0.00    -0.139 S 
ATOM     43  CE  MET A   1      -1.736   6.638  15.211  0.00  0.00    +0.069 C 
ENDBRANCH  41  42
ENDBRANCH  40  41
ENDBRANCH  37  40
ENDBRANCH  33  37
ENDBRANCH  32  34
BRANCH  32  44
ATOM     44  CB  VAL A   2      -6.710  12.272  18.942  0.00  0.00    +0.027 C 
ATOM     45  CG2 VAL A   2      -7.264  11.112  19.726  0.00  0.00    +0.002 C 
ATOM     46  CG1 VAL A   2      -7.481  12.480  17.647  0.00  0.00    +0.002 C 
ENDBRANCH  32  44
ENDBRANCH  28  32
ENDBRANCH  27  29
ENDBRANCH   1  27
TORSDOF 20
REMARK  Name = ../refined-set-2016/3ttp/3ttp_pocket.pdb
REMARK  209 active torsions:
REMARK  status: ('A' for Active; 'I' for Inactive)
REMARK    1  A    between atoms: _1  and  _3
REMARK    2  A    between atoms: _3  and  _4
REMARK    3  A    between atoms: _3  and  _6
REMARK    4  A    between atoms: _6  and  _7
REMARK    5  A    between atoms: _7  and  _8
REMARK    6  A    between atoms: _8  and  _9
REMARK    7  A    between atoms: _18  and  _20
REMARK    8  A    between atoms: _20  and  _21
REMARK    9  A    between atoms: _20  and  _23
REMARK   10  A    between atoms: _23  and  _24
REMARK   11  A    between atoms: _27  and  _29
REMARK   12  A    between atoms: _29  and  _30
REMARK   13  A    between atoms: _29  and  _32
REMARK   14  A    between atoms: _32  and  _33
REMARK   15  A    between atoms: _36  and  _38
REMARK   16  A    between atoms: _38  and  _39
REMARK   17  A    between atoms: _38  and  _41
REMARK   18  A    between atoms: _41  and  _42
REMARK   19  A    between atoms: _45  and  _47
REMARK   20  A    between atoms: _47  and  _48
REMARK   21  A    between atoms: _47  and  _50
REMARK   22  A    between atoms: _50  and  _51
REMARK   23  A    between atoms: _54  and  _56
REMARK   24  A    between atoms: _56  and  _57
REMARK   25  A    between atoms: _59  and  _61
REMARK   26  A    between atoms: _61  and  _62
REMARK   27  A    between atoms: _65  and  _67
REMARK   28  A    between atoms: _67  and  _68
REMARK   29  A    between atoms: _67  and  _70
REMARK   30  A    between atoms: _70  and  _71
REMARK   31  A    between atoms: _74  and  _76
REMARK   32  A    between atoms: _76  and  _77
REMARK   33  A    between atoms: _76  and  _79
REMARK   34  A    between atoms: _79  and  _80
REMARK   35  A    between atoms: _83  and  _85
REMARK   36  A    between atoms: _85  and  _86
REMARK   37  A    between atoms: _85  and  _88
REMARK   38  A    between atoms: _88  and  _89
REMARK   39  A    between atoms: _92  and  _94
REMARK   40  A    between atoms: _94  and  _95
REMARK   41  A    between atoms: _94  and  _97
REMARK   42  A    between atoms: _97  and  _98
REMARK   43  A    between atoms: _101  and  _103
REMARK   44  A    between atoms: _103  and  _104
REMARK   45  A    between atoms: _103  and  _106
REMARK   46  A    between atoms: _106  and  _107
REMARK   47  A    between atoms: _107  and  _108
REMARK   48  A    between atoms: _110  and  _112
REMARK   49  A    between atoms: _112  and  _113
REMARK   50  A    between atoms: _112  and  _115
REMARK   51  A    between atoms: _118  and  _120
REMARK   52  A    between atoms: _120  and  _121
REMARK   53  A    between atoms: _123  and  _125
REMARK   54  A    between atoms: _125  and  _126
REMARK   55  A    between atoms: _128  and  _130
REMARK   56  A    between atoms: _130  and  _131
REMARK   57  A    between atoms: _130  and  _133
REMARK   58  A    between atoms: _133  and  _134
REMARK   59  A    between atoms: _137  and  _139
REMARK   60  A    between atoms: _139  and  _140
REMARK   61  A    between atoms: _142  and  _144
REMARK   62  A    between atoms: _144  and  _145
REMARK   63  A    between atoms: _147  and  _149
REMARK   64  A    between atoms: _149  and  _150
REMARK   65  A    between atoms: _149  and  _152
REMARK   66  A    between atoms: _152  and  _153
REMARK   67  A    between atoms: _153  and  _154
REMARK   68  A    between atoms: _156  and  _158
REMARK   69  A    between atoms: _158  and  _159
REMARK   70  A    between atoms: _158  and  _161
REMARK   71  A    between atoms: _161  and  _162
REMARK   72  A    between atoms: _165  and  _167
REMARK   73  A    between atoms: _167  and  _168
REMARK   74  A    between atoms: _167  and  _170
REMARK   75  A    between atoms: _170  and  _171
REMARK   76  A    between atoms: _175  and  _176
REMARK   77  A    between atoms: _181  and  _183
REMARK   78  A    between atoms: _183  and  _184
REMARK   79  A    between atoms: _183  and  _186
REMARK   80  A    between atoms: _186  and  _187
REMARK   81  A    between atoms: _190  and  _192
REMARK   82  A    between atoms: _192  and  _193
REMARK   83  A    between atoms: _192  and  _195
REMARK   84  A    between atoms: _195  and  _196
REMARK   85  A    between atoms: _201  and  _203
REMARK   86  A    between atoms: _203  and  _204
REMARK   87  A    between atoms: _203  and  _206
REMARK   88  A    between atoms: _206  and  _207
REMARK   89  A    between atoms: _210  and  _212
REMARK   90  A    between atoms: _212  and  _213
REMARK   91  A    between atoms: _212  and  _215
REMARK   92  A    between atoms: _215  and  _216
REMARK   93  A    between atoms: _219  and  _221
REMARK   94  A    between atoms: _221  and  _222
REMARK   95  A    between atoms: _224  and  _226
REMARK   96  A    between atoms: _226  and  _227
REMARK   97  A    between atoms: _226  and  _229
REMARK   98  A    between atoms: _229  and  _230
REMARK   99  A    between atoms: _230  and  _231
REMARK  100  A    between atoms: _231  and  _232
REMARK  101  A    between atoms: _241  and  _243
REMARK  102  A    between atoms: _243  and  _244
REMARK  103  A    between atoms: _243  and  _246
REMARK  104  A    between atoms: _246  and  _247
REMARK  105  A    between atoms: _252  and  _254
REMARK  106  A    between atoms: _254  and  _255
REMARK  107  A    between atoms: _254  and  _257
REMARK  108  A    between atoms: _257  and  _258
REMARK  109  A    between atoms: _258  and  _259
REMARK  110  A    between atoms: _259  and  _260
REMARK  111  A    between atoms: _269  and  _271
REMARK  112  A    between atoms: _271  and  _272
REMARK  113  A    between atoms: _271  and  _274
REMARK  114  A    between atoms: _274  and  _275
REMARK  115  A    between atoms: _278  and  _280
REMARK  116  A    between atoms: _280  and  _281
REMARK  117  A    between atoms: _280  and  _283
REMARK  118  A    between atoms: _283  and  _284
REMARK  119  A    between atoms: _287  and  _289
REMARK  120  A    between atoms: _289  and  _290
REMARK  121  A    between atoms: _289  and  _292
REMARK  122  A    between atoms: _292  and  _293
REMARK  123  A    between atoms: _296  and  _298
REMARK  124  A    between atoms: _298  and  _299
REMARK  125  A    between atoms: _298  and  _301
REMARK  126  A    between atoms: _301  and  _302
REMARK  127  A    between atoms: _305  and  _307
REMARK  128  A    between atoms: _307  and  _308
REMARK  129  A    between atoms: _310  and  _312
REMARK  130  A    between atoms: _312  and  _313
REMARK  131  A    between atoms: _316  and  _318
REMARK  132  A    between atoms: _318  and  _319
REMARK  133  A    between atoms: _318  and  _321
REMARK  134  A    between atoms: _321  and  _322
REMARK  135  A    between atoms: _325  and  _327
REMARK  136  A    between atoms: _327  and  _328
REMARK  137  A    between atoms: _327  and  _330
REMARK  138  A    between atoms: _330  and  _331
REMARK  139  A    between atoms: _334  and  _336
REMARK  140  A    between atoms: _336  and  _337
REMARK  141  A    between atoms: _336  and  _339
REMARK  142  A    between atoms: _339  and  _340
REMARK  143  A    between atoms: _343  and  _345
REMARK  144  A    between atoms: _345  and  _346
REMARK  145  A    between atoms: _345  and  _348
REMARK  146  A    between atoms: _348  and  _349
REMARK  147  A    between atoms: _352  and  _354
REMARK  148  A    between atoms: _354  and  _355
REMARK  149  A    between atoms: _354  and  _357
REMARK  150  A    between atoms: _357  and  _358
REMARK  151  A    between atoms: _358  and  _359
REMARK  152  A    between atoms: _361  and  _363
REMARK  153  A    between atoms: _363  and  _364
REMARK  154  A    between atoms: _363  and  _366
REMARK  155  A    between atoms: _369  and  _371
REMARK  156  A    between atoms: _371  and  _372
REMARK  157  A    between atoms: _374  and  _376
REMARK  158  A    between atoms: _376  and  _377
REMARK  159  A    between atoms: _379  and  _381
REMARK  160  A    between atoms: _381  and  _382
REMARK  161  A    between atoms: _381  and  _384
REMARK  162  A    between atoms: _384  and  _385
REMARK  163  A    between atoms: _388  and  _390
REMARK  164  A    between atoms: _390  and  _391
REMARK  165  A    between atoms: _393  and  _395
REMARK  166  A    between atoms: _395  and  _396
REMARK  167  A    between atoms: _398  and  _400
REMARK  168  A    between atoms: _400  and  _401
REMARK  169  A    between atoms: _400  and  _403
REMARK  170  A    between atoms: _403  and  _404
REMARK  171  A    between atoms: _404  and  _405
REMARK  172  A    between atoms: _407  and  _409
REMARK  173  A    between atoms: _409  and  _410
REMARK  174  A    between atoms: _409  and  _412
REMARK  175  A    between atoms: _412  and  _413
REMARK  176  A    between atoms: _417  and  _418
REMARK  177  A    between atoms: _423  and  _425
REMARK  178  A    between atoms: _425  and  _426
REMARK  179  A    between atoms: _425  and  _428
REMARK  180  A    between atoms: _428  and  _429
REMARK  181  A    between atoms: _433  and  _434
REMARK  182  A    between atoms: _439  and  _441
REMARK  183  A    between atoms: _441  and  _442
REMARK  184  A    between atoms: _441  and  _444
REMARK  185  A    between atoms: _444  and  _445
REMARK  186  A    between atoms: _448  and  _450
REMARK  187  A    between atoms: _450  and  _451
REMARK  188  A    between atoms: _450  and  _453
REMARK  189  A    between atoms: _453  and  _454
REMARK  190  A    between atoms: _459  and  _461
REMARK  191  A    between atoms: _461  and  _462
REMARK  192  A    between atoms: _461  and  _464
REMARK  193  A    between atoms: _464  and  _465
REMARK  194  A    between atoms: _468  and  _470
REMARK  195  A    between atoms: _470  and  _471
REMARK  196  A    between atoms: _470  and  _473
REMARK  197  A    between atoms: _473  and  _474
REMARK  198  A    between atoms: _477  and  _479
REMARK  199  A    between atoms: _479  and  _480
REMARK  200  A    between atoms: _482  and  _484
REMARK  201  A    between atoms: _484  and  _485
REMARK  202  A    between atoms: _484  and  _487
REMARK  203  A    between atoms: _487  and  _488
REMARK  204  A    between atoms: _488  and  _489
REMARK  205  A    between atoms: _489  and  _490
REMARK  206  A    between atoms: _499  and  _501
REMARK  207  A    between atoms: _501  and  _502
REMARK  208  A    between atoms: _501  and  _504
REMARK  209  A    between atoms: _504  and  _505
REMARK                            x       y       z     vdW  Elec       q    Type
REMARK                         _______ _______ _______ _____ _____    ______ ____
ROOT
ATOM      1  CA  MET A   1      -5.414   6.584  19.666  0.00  0.00    +0.134 C 
ENDROOT
BRANCH   1   2
ATOM      2  N   MET A   1      -4.588   7.567  20.380  0.00  0.00    -0.239 NA
ATOM      3  H   MET A   1      -4.523   8.541  20.022  0.00  0.00    +0.142 HD
ENDBRANCH   1   2
BRANCH   1   4
ATOM      4  C   MET A   1      -5.563   6.886  18.181  0.00  0.00    +0.224 C 
ATOM      5  O   MET A   1      -5.579   8.046  17.776  0.00  0.00    -0.287 OA
ENDBRANCH   1   4
BRANCH   1   6
ATOM      6  CB  MET A   1      -6.791   6.427  20.307  0.00  0.00    +0.037 C 
BRANCH   6   7
ATOM      7  CG  MET A   1      -7.635   7.668  20.224  0.00  0.00    +0.059 C 
BRANCH   7   8
ATOM      8  SD  MET A   1      -9.247   7.322  20.897  0.00  0.00    -0.139 S 
ATOM      9  CE  MET A   1     -10.089   8.786  20.356  0.00  0.00    +0.069 C 
ENDBRANCH   7   8
ENDBRANCH   6   7
ENDBRANCH   1   6
TORSDOF 5
REMARK  Name = ../refined-set-2016/3ttp/3ttp_pocket.pdb
REMARK  209 active torsions:
REMARK  status: ('A' for Active; 'I' for Inactive)
REMARK    1  A    between atoms: _1  and  _3
REMARK    2  A    between atoms: _3  and  _4
REMARK    3  A    between atoms: _3  and  _6
REMARK    4  A    between atoms: _6  and  _7
REMARK    5  A    between atoms: _7  and  _8
REMARK    6  A    between atoms: _8  and  _9
REMARK    7  A    between atoms: _18  and  _20
REMARK    8  A    between atoms: _20  and  _21
REMARK    9  A    between atoms: _20  and  _23
REMARK   10  A    between atoms: _23  and  _24
REMARK   11  A    between atoms: _27  and  _29
REMARK   12  A    between atoms: _29  and  _30
REMARK   13  A    between atoms: _29  and  _32
REMARK   14  A    between atoms: _32  and  _33
REMARK   15  A    between atoms: _36  and  _38
REMARK   16  A    between atoms: _38  and  _39
REMARK   17  A    between atoms: _38  and  _41
REMARK   18  A    between atoms: _41  and  _42
REMARK   19  A    between atoms: _45  and  _47
REMARK   20  A    between atoms: _47  and  _48
REMARK   21  A    between atoms: _47  and  _50
REMARK   22  A    between atoms: _50  and  _51
REMARK   23  A    between atoms: _54  and  _56
REMARK   24  A    between atoms: _56  and  _57
REMARK   25  A    between atoms: _59  and  _61
REMARK   26  A    between atoms: _61  and  _62
REMARK   27  A    between atoms: _65  and  _67
REMARK   28  A    between atoms: _67  and  _68
REMARK   29  A    between atoms: _67  and  _70
REMARK   30  A    between atoms: _70  and  _71
REMARK   31  A    between atoms: _74  and  _76
REMARK   32  A    between atoms: _76  and  _77
REMARK   33  A    between atoms: _76  and  _79
REMARK   34  A    between atoms: _79  and  _80
REMARK   35  A    between atoms: _83  and  _85
REMARK   36  A    between atoms: _85  and  _86
REMARK   37  A    between atoms: _85  and  _88
REMARK   38  A    between atoms: _88  and  _89
REMARK   39  A    between atoms: _92  and  _94
REMARK   40  A    between atoms: _94  and  _95
REMARK   41  A    between atoms: _94  and  _97
REMARK   42  A    between atoms: _97  and  _98
REMARK   43  A    between atoms: _101  and  _103
REMARK   44  A    between atoms: _103  and  _104
REMARK   45  A    between atoms: _103  and  _106
REMARK   46  A    between atoms: _106  and  _107
REMARK   47  A    between atoms: _107  and  _108
REMARK   48  A    between atoms: _110  and  _112
REMARK   49  A    between atoms: _112  and  _113
REMARK   50  A    between atoms: _112  and  _115
REMARK   51  A    between atoms: _118  and  _120
REMARK   52  A    between atoms: _120  and  _121
REMARK   53  A    between atoms: _123  and  _125
REMARK   54  A    between atoms: _125  and  _126
REMARK   55  A    between atoms: _128  and  _130
REMARK   56  A    between atoms: _130  and  _131
REMARK   57  A    between atoms: _130  and  _133
REMARK   58  A    between atoms: _133  and  _134
REMARK   59  A    between atoms: _137  and  _139
REMARK   60  A    between atoms: _139  and  _140
REMARK   61  A    between atoms: _142  and  _144
REMARK   62  A    between atoms: _144  and  _145
REMARK   63  A    between atoms: _147  and  _149
REMARK   64  A    between atoms: _149  and  _150
REMARK   65  A    between atoms: _149  and  _152
REMARK   66  A    between atoms: _152  and  _153
REMARK   67  A    between atoms: _153  and  _154
REMARK   68  A    between atoms: _156  and  _158
REMARK   69  A    between atoms: _158  and  _159
REMARK   70  A    between atoms: _158  and  _161
REMARK   71  A    between atoms: _161  and  _162
REMARK   72  A    between atoms: _165  and  _167
REMARK   73  A    between atoms: _167  and  _168
REMARK   74  A    between atoms: _167  and  _170
REMARK   75  A    between atoms: _170  and  _171
REMARK   76  A    between atoms: _175  and  _176
REMARK   77  A    between atoms: _181  and  _183
REMARK   78  A    between atoms: _183  and  _184
REMARK   79  A    between atoms: _183  and  _186
REMARK   80  A    between atoms: _186  and  _187
REMARK   81  A    between atoms: _190  and  _192
REMARK   82  A    between atoms: _192  and  _193
REMARK   83  A    between atoms: _192  and  _195
REMARK   84  A    between atoms: _195  and  _196
REMARK   85  A    between atoms: _201  and  _203
REMARK   86  A    between atoms: _203  and  _204
REMARK   87  A    between atoms: _203  and  _206
REMARK   88  A    between atoms: _206  and  _207
REMARK   89  A    between atoms: _210  and  _212
REMARK   90  A    between atoms: _212  and  _213
REMARK   91  A    between atoms: _212  and  _215
REMARK   92  A    between atoms: _215  and  _216
REMARK   93  A    between atoms: _219  and  _221
REMARK   94  A    between atoms: _221  and  _222
REMARK   95  A    between atoms: _224  and  _226
REMARK   96  A    between atoms: _226  and  _227
REMARK   97  A    between atoms: _226  and  _229
REMARK   98  A    between atoms: _229  and  _230
REMARK   99  A    between atoms: _230  and  _231
REMARK  100  A    between atoms: _231  and  _232
REMARK  101  A    between atoms: _241  and  _243
REMARK  102  A    between atoms: _243  and  _244
REMARK  103  A    between atoms: _243  and  _246
REMARK  104  A    between atoms: _246  and  _247
REMARK  105  A    between atoms: _252  and  _254
REMARK  106  A    between atoms: _254  and  _255
REMARK  107  A    between atoms: _254  and  _257
REMARK  108  A    between atoms: _257  and  _258
REMARK  109  A    between atoms: _258  and  _259
REMARK  110  A    between atoms: _259  and  _260
REMARK  111  A    between atoms: _269  and  _271
REMARK  112  A    between atoms: _271  and  _272
REMARK  113  A    between atoms: _271  and  _274
REMARK  114  A    between atoms: _274  and  _275
REMARK  115  A    between atoms: _278  and  _280
REMARK  116  A    between atoms: _280  and  _281
REMARK  117  A    between atoms: _280  and  _283
REMARK  118  A    between atoms: _283  and  _284
REMARK  119  A    between atoms: _287  and  _289
REMARK  120  A    between atoms: _289  and  _290
REMARK  121  A    between atoms: _289  and  _292
REMARK  122  A    between atoms: _292  and  _293
REMARK  123  A    between atoms: _296  and  _298
REMARK  124  A    between atoms: _298  and  _299
REMARK  125  A    between atoms: _298  and  _301
REMARK  126  A    between atoms: _301  and  _302
REMARK  127  A    between atoms: _305  and  _307
REMARK  128  A    between atoms: _307  and  _308
REMARK  129  A    between atoms: _310  and  _312
REMARK  130  A    between atoms: _312  and  _313
REMARK  131  A    between atoms: _316  and  _318
REMARK  132  A    between atoms: _318  and  _319
REMARK  133  A    between atoms: _318  and  _321
REMARK  134  A    between atoms: _321  and  _322
REMARK  135  A    between atoms: _325  and  _327
REMARK  136  A    between atoms: _327  and  _328
REMARK  137  A    between atoms: _327  and  _330
REMARK  138  A    between atoms: _330  and  _331
REMARK  139  A    between atoms: _334  and  _336
REMARK  140  A    between atoms: _336  and  _337
REMARK  141  A    between atoms: _336  and  _339
REMARK  142  A    between atoms: _339  and  _340
REMARK  143  A    between atoms: _343  and  _345
REMARK  144  A    between atoms: _345  and  _346
REMARK  145  A    between atoms: _345  and  _348
REMARK  146  A    between atoms: _348  and  _349
REMARK  147  A    between atoms: _352  and  _354
REMARK  148  A    between atoms: _354  and  _355
REMARK  149  A    between atoms: _354  and  _357
REMARK  150  A    between atoms: _357  and  _358
REMARK  151  A    between atoms: _358  and  _359
REMARK  152  A    between atoms: _361  and  _363
REMARK  153  A    between atoms: _363  and  _364
REMARK  154  A    between atoms: _363  and  _366
REMARK  155  A    between atoms: _369  and  _371
REMARK  156  A    between atoms: _371  and  _372
REMARK  157  A    between atoms: _374  and  _376
REMARK  158  A    between atoms: _376  and  _377
REMARK  159  A    between atoms: _379  and  _381
REMARK  160  A    between atoms: _381  and  _382
REMARK  161  A    between atoms: _381  and  _384
REMARK  162  A    between atoms: _384  and  _385
REMARK  163  A    between atoms: _388  and  _390
REMARK  164  A    between atoms: _390  and  _391
REMARK  165  A    between atoms: _393  and  _395
REMARK  166  A    between atoms: _395  and  _396
REMARK  167  A    between atoms: _398  and  _400
REMARK  168  A    between atoms: _400  and  _401
REMARK  169  A    between atoms: _400  and  _403
REMARK  170  A    between atoms: _403  and  _404
REMARK  171  A    between atoms: _404  and  _405
REMARK  172  A    between atoms: _407  and  _409
REMARK  173  A    between atoms: _409  and  _410
REMARK  174  A    between atoms: _409  and  _412
REMARK  175  A    between atoms: _412  and  _413
REMARK  176  A    between atoms: _417  and  _418
REMARK  177  A    between atoms: _423  and  _425
REMARK  178  A    between atoms: _425  and  _426
REMARK  179  A    between atoms: _425  and  _428
REMARK  180  A    between atoms: _428  and  _429
REMARK  181  A    between atoms: _433  and  _434
REMARK  182  A    between atoms: _439  and  _441
REMARK  183  A    between atoms: _441  and  _442
REMARK  184  A    between atoms: _441  and  _444
REMARK  185  A    between atoms: _444  and  _445
REMARK  186  A    between atoms: _448  and  _450
REMARK  187  A    between atoms: _450  and  _451
REMARK  188  A    between atoms: _450  and  _453
REMARK  189  A    between atoms: _453  and  _454
REMARK  190  A    between atoms: _459  and  _461
REMARK  191  A    between atoms: _461  and  _462
REMARK  192  A    between atoms: _461  and  _464
REMARK  193  A    between atoms: _464  and  _465
REMARK  194  A    between atoms: _468  and  _470
REMARK  195  A    between atoms: _470  and  _471
REMARK  196  A    between atoms: _470  and  _473
REMARK  197  A    between atoms: _473  and  _474
REMARK  198  A    between atoms: _477  and  _479
REMARK  199  A    between atoms: _479  and  _480
REMARK  200  A    between atoms: _482  and  _484
REMARK  201  A    between atoms: _484  and  _485
REMARK  202  A    between atoms: _484  and  _487
REMARK  203  A    between atoms: _487  and  _488
REMARK  204  A    between atoms: _488  and  _489
REMARK  205  A    between atoms: _489  and  _490
REMARK  206  A    between atoms: _499  and  _501
REMARK  207  A    between atoms: _501  and  _502
REMARK  208  A    between atoms: _501  and  _504
REMARK  209  A    between atoms: _504  and  _505
REMARK                            x       y       z     vdW  Elec       q    Type
REMARK                         _______ _______ _______ _____ _____    ______ ____
ROOT
ATOM      1  CA  LEU A   1     -12.847  12.218  13.963  0.00  0.00    +0.133 C 
ENDROOT
BRANCH   1   2
ATOM      2  N   LEU A   1     -13.643  13.379  13.624  0.00  0.00    -0.239 NA
ATOM      3  H   LEU A   1     -13.737  14.150  14.315  0.00  0.00    +0.142 HD
ENDBRANCH   1   2
BRANCH   1   4
ATOM      4  C   LEU A   1     -13.691  11.098  14.597  0.00  0.00    +0.224 C 
ATOM      5  O   LEU A   1     -14.470  11.329  15.505  0.00  0.00    -0.287 OA
ENDBRANCH   1   4
BRANCH   1   6
ATOM      6  CB  LEU A   1     -11.680  12.627  14.894  0.00  0.00    +0.025 C 
BRANCH   6   7
ATOM      7  CG  LEU A   1     -10.804  13.811  14.434  0.00  0.00    +0.002 C 
ATOM      8  CD2 LEU A   1      -9.622  14.094  15.342  0.00  0.00    +0.000 C 
ATOM      9  CD1 LEU A   1     -10.322  13.625  13.013  0.00  0.00    +0.000 C 
ENDBRANCH   6   7
ENDBRANCH   1   6
TORSDOF 4
REMARK  Name = ../refined-set-2016/3ttp/3ttp_pocket.pdb
REMARK  209 active torsions:
REMARK  status: ('A' for Active; 'I' for Inactive)
REMARK    1  A    between atoms: _1  and  _3
REMARK    2  A    between atoms: _3  and  _4
REMARK    3  A    between atoms: _3  and  _6
REMARK    4  A    between atoms: _6  and  _7
REMARK    5  A    between atoms: _7  and  _8
REMARK    6  A    between atoms: _8  and  _9
REMARK    7  A    between atoms: _18  and  _20
REMARK    8  A    between atoms: _20  and  _21
REMARK    9  A    between atoms: _20  and  _23
REMARK   10  A    between atoms: _23  and  _24
REMARK   11  A    between atoms: _27  and  _29
REMARK   12  A    between atoms: _29  and  _30
REMARK   13  A    between atoms: _29  and  _32
REMARK   14  A    between atoms: _32  and  _33
REMARK   15  A    between atoms: _36  and  _38
REMARK   16  A    between atoms: _38  and  _39
REMARK   17  A    between atoms: _38  and  _41
REMARK   18  A    between atoms: _41  and  _42
REMARK   19  A    between atoms: _45  and  _47
REMARK   20  A    between atoms: _47  and  _48
REMARK   21  A    between atoms: _47  and  _50
REMARK   22  A    between atoms: _50  and  _51
REMARK   23  A    between atoms: _54  and  _56
REMARK   24  A    between atoms: _56  and  _57
REMARK   25  A    between atoms: _59  and  _61
REMARK   26  A    between atoms: _61  and  _62
REMARK   27  A    between atoms: _65  and  _67
REMARK   28  A    between atoms: _67  and  _68
REMARK   29  A    between atoms: _67  and  _70
REMARK   30  A    between atoms: _70  and  _71
REMARK   31  A    between atoms: _74  and  _76
REMARK   32  A    between atoms: _76  and  _77
REMARK   33  A    between atoms: _76  and  _79
REMARK   34  A    between atoms: _79  and  _80
REMARK   35  A    between atoms: _83  and  _85
REMARK   36  A    between atoms: _85  and  _86
REMARK   37  A    between atoms: _85  and  _88
REMARK   38  A    between atoms: _88  and  _89
REMARK   39  A    between atoms: _92  and  _94
REMARK   40  A    between atoms: _94  and  _95
REMARK   41  A    between atoms: _94  and  _97
REMARK   42  A    between atoms: _97  and  _98
REMARK   43  A    between atoms: _101  and  _103
REMARK   44  A    between atoms: _103  and  _104
REMARK   45  A    between atoms: _103  and  _106
REMARK   46  A    between atoms: _106  and  _107
REMARK   47  A    between atoms: _107  and  _108
REMARK   48  A    between atoms: _110  and  _112
REMARK   49  A    between atoms: _112  and  _113
REMARK   50  A    between atoms: _112  and  _115
REMARK   51  A    between atoms: _118  and  _120
REMARK   52  A    between atoms: _120  and  _121
REMARK   53  A    between atoms: _123  and  _125
REMARK   54  A    between atoms: _125  and  _126
REMARK   55  A    between atoms: _128  and  _130
REMARK   56  A    between atoms: _130  and  _131
REMARK   57  A    between atoms: _130  and  _133
REMARK   58  A    between atoms: _133  and  _134
REMARK   59  A    between atoms: _137  and  _139
REMARK   60  A    between atoms: _139  and  _140
REMARK   61  A    between atoms: _142  and  _144
REMARK   62  A    between atoms: _144  and  _145
REMARK   63  A    between atoms: _147  and  _149
REMARK   64  A    between atoms: _149  and  _150
REMARK   65  A    between atoms: _149  and  _152
REMARK   66  A    between atoms: _152  and  _153
REMARK   67  A    between atoms: _153  and  _154
REMARK   68  A    between atoms: _156  and  _158
REMARK   69  A    between atoms: _158  and  _159
REMARK   70  A    between atoms: _158  and  _161
REMARK   71  A    between atoms: _161  and  _162
REMARK   72  A    between atoms: _165  and  _167
REMARK   73  A    between atoms: _167  and  _168
REMARK   74  A    between atoms: _167  and  _170
REMARK   75  A    between atoms: _170  and  _171
REMARK   76  A    between atoms: _175  and  _176
REMARK   77  A    between atoms: _181  and  _183
REMARK   78  A    between atoms: _183  and  _184
REMARK   79  A    between atoms: _183  and  _186
REMARK   80  A    between atoms: _186  and  _187
REMARK   81  A    between atoms: _190  and  _192
REMARK   82  A    between atoms: _192  and  _193
REMARK   83  A    between atoms: _192  and  _195
REMARK   84  A    between atoms: _195  and  _196
REMARK   85  A    between atoms: _201  and  _203
REMARK   86  A    between atoms: _203  and  _204
REMARK   87  A    between atoms: _203  and  _206
REMARK   88  A    between atoms: _206  and  _207
REMARK   89  A    between atoms: _210  and  _212
REMARK   90  A    between atoms: _212  and  _213
REMARK   91  A    between atoms: _212  and  _215
REMARK   92  A    between atoms: _215  and  _216
REMARK   93  A    between atoms: _219  and  _221
REMARK   94  A    between atoms: _221  and  _222
REMARK   95  A    between atoms: _224  and  _226
REMARK   96  A    between atoms: _226  and  _227
REMARK   97  A    between atoms: _226  and  _229
REMARK   98  A    between atoms: _229  and  _230
REMARK   99  A    between atoms: _230  and  _231
REMARK  100  A    between atoms: _231  and  _232
REMARK  101  A    between atoms: _241  and  _243
REMARK  102  A    between atoms: _243  and  _244
REMARK  103  A    between atoms: _243  and  _246
REMARK  104  A    between atoms: _246  and  _247
REMARK  105  A    between atoms: _252  and  _254
REMARK  106  A    between atoms: _254  and  _255
REMARK  107  A    between atoms: _254  and  _257
REMARK  108  A    between atoms: _257  and  _258
REMARK  109  A    between atoms: _258  and  _259
REMARK  110  A    between atoms: _259  and  _260
REMARK  111  A    between atoms: _269  and  _271
REMARK  112  A    between atoms: _271  and  _272
REMARK  113  A    between atoms: _271  and  _274
REMARK  114  A    between atoms: _274  and  _275
REMARK  115  A    between atoms: _278  and  _280
REMARK  116  A    between atoms: _280  and  _281
REMARK  117  A    between atoms: _280  and  _283
REMARK  118  A    between atoms: _283  and  _284
REMARK  119  A    between atoms: _287  and  _289
REMARK  120  A    between atoms: _289  and  _290
REMARK  121  A    between atoms: _289  and  _292
REMARK  122  A    between atoms: _292  and  _293
REMARK  123  A    between atoms: _296  and  _298
REMARK  124  A    between atoms: _298  and  _299
REMARK  125  A    between atoms: _298  and  _301
REMARK  126  A    between atoms: _301  and  _302
REMARK  127  A    between atoms: _305  and  _307
REMARK  128  A    between atoms: _307  and  _308
REMARK  129  A    between atoms: _310  and  _312
REMARK  130  A    between atoms: _312  and  _313
REMARK  131  A    between atoms: _316  and  _318
REMARK  132  A    between atoms: _318  and  _319
REMARK  133  A    between atoms: _318  and  _321
REMARK  134  A    between atoms: _321  and  _322
REMARK  135  A    between atoms: _325  and  _327
REMARK  136  A    between atoms: _327  and  _328
REMARK  137  A    between atoms: _327  and  _330
REMARK  138  A    between atoms: _330  and  _331
REMARK  139  A    between atoms: _334  and  _336
REMARK  140  A    between atoms: _336  and  _337
REMARK  141  A    between atoms: _336  and  _339
REMARK  142  A    between atoms: _339  and  _340
REMARK  143  A    between atoms: _343  and  _345
REMARK  144  A    between atoms: _345  and  _346
REMARK  145  A    between atoms: _345  and  _348
REMARK  146  A    between atoms: _348  and  _349
REMARK  147  A    between atoms: _352  and  _354
REMARK  148  A    between atoms: _354  and  _355
REMARK  149  A    between atoms: _354  and  _357
REMARK  150  A    between atoms: _357  and  _358
REMARK  151  A    between atoms: _358  and  _359
REMARK  152  A    between atoms: _361  and  _363
REMARK  153  A    between atoms: _363  and  _364
REMARK  154  A    between atoms: _363  and  _366
REMARK  155  A    between atoms: _369  and  _371
REMARK  156  A    between atoms: _371  and  _372
REMARK  157  A    between atoms: _374  and  _376
REMARK  158  A    between atoms: _376  and  _377
REMARK  159  A    between atoms: _379  and  _381
REMARK  160  A    between atoms: _381  and  _382
REMARK  161  A    between atoms: _381  and  _384
REMARK  162  A    between atoms: _384  and  _385
REMARK  163  A    between atoms: _388  and  _390
REMARK  164  A    between atoms: _390  and  _391
REMARK  165  A    between atoms: _393  and  _395
REMARK  166  A    between atoms: _395  and  _396
REMARK  167  A    between atoms: _398  and  _400
REMARK  168  A    between atoms: _400  and  _401
REMARK  169  A    between atoms: _400  and  _403
REMARK  170  A    between atoms: _403  and  _404
REMARK  171  A    between atoms: _404  and  _405
REMARK  172  A    between atoms: _407  and  _409
REMARK  173  A    between atoms: _409  and  _410
REMARK  174  A    between atoms: _409  and  _412
REMARK  175  A    between atoms: _412  and  _413
REMARK  176  A    between atoms: _417  and  _418
REMARK  177  A    between atoms: _423  and  _425
REMARK  178  A    between atoms: _425  and  _426
REMARK  179  A    between atoms: _425  and  _428
REMARK  180  A    between atoms: _428  and  _429
REMARK  181  A    between atoms: _433  and  _434
REMARK  182  A    between atoms: _439  and  _441
REMARK  183  A    between atoms: _441  and  _442
REMARK  184  A    between atoms: _441  and  _444
REMARK  185  A    between atoms: _444  and  _445
REMARK  186  A    between atoms: _448  and  _450
REMARK  187  A    between atoms: _450  and  _451
REMARK  188  A    between atoms: _450  and  _453
REMARK  189  A    between atoms: _453  and  _454
REMARK  190  A    between atoms: _459  and  _461
REMARK  191  A    between atoms: _461  and  _462
REMARK  192  A    between atoms: _461  and  _464
REMARK  193  A    between atoms: _464  and  _465
REMARK  194  A    between atoms: _468  and  _470
REMARK  195  A    between atoms: _470  and  _471
REMARK  196  A    between atoms: _470  and  _473
REMARK  197  A    between atoms: _473  and  _474
REMARK  198  A    between atoms: _477  and  _479
REMARK  199  A    between atoms: _479  and  _480
REMARK  200  A    between atoms: _482  and  _484
REMARK  201  A    between atoms: _484  and  _485
REMARK  202  A    between atoms: _484  and  _487
REMARK  203  A    between atoms: _487  and  _488
REMARK  204  A    between atoms: _488  and  _489
REMARK  205  A    between atoms: _489  and  _490
REMARK  206  A    between atoms: _499  and  _501
REMARK  207  A    between atoms: _501  and  _502
REMARK  208  A    between atoms: _501  and  _504
REMARK  209  A    between atoms: _504  and  _505
REMARK                            x       y       z     vdW  Elec       q    Type
REMARK                         _______ _______ _______ _____ _____    ______ ____
ROOT
ATOM      1  C   ILE A   5     -16.746  16.847  21.055  0.00  0.00    +0.241 C 
ATOM      2  N   ILE A   6     -17.215  18.053  21.341  0.00  0.00    -0.297 N 
ATOM      3  H   ILE A   6     -17.523  18.257  22.313  0.00  0.00    +0.150 HD
ATOM      4  O   ILE A   5     -16.431  16.486  19.922  0.00  0.00    -0.273 OA
ENDROOT
BRANCH   2   5
ATOM      5  CA  ILE A   6     -17.311  19.085  20.350  0.00  0.00    +0.149 C 
BRANCH   5   6
ATOM      6  C   ILE A   6     -16.142  20.024  20.568  0.00  0.00    +0.241 C 
ATOM      7  O   ILE A   6     -16.040  20.670  21.628  0.00  0.00    -0.273 OA
ATOM      8  N   GLY A   7     -15.260  20.102  19.573  0.00  0.00    -0.295 N 
ATOM      9  H   GLY A   7     -15.455  19.626  18.669  0.00  0.00    +0.150 HD
BRANCH   8  10
ATOM     10  CA  GLY A   7     -14.003  20.865  19.750  0.00  0.00    +0.176 C 
BRANCH  10  11
ATOM     11  C   GLY A   7     -13.979  22.216  19.083  0.00  0.00    +0.243 C 
ATOM     12  N   ARG A   8     -12.875  22.940  19.252  0.00  0.00    -0.297 N 
ATOM     13  H   ARG A   8     -12.056  22.521  19.737  0.00  0.00    +0.150 HD
ATOM     14  O   GLY A   7     -14.928  22.593  18.381  0.00  0.00    -0.273 OA
BRANCH  12  15
ATOM     15  CA  ARG A   8     -12.799  24.309  18.768  0.00  0.00    +0.149 C 
BRANCH  15  16
ATOM     16  C   ARG A   8     -13.101  24.466  17.283  0.00  0.00    +0.241 C 
ATOM     17  O   ARG A   8     -13.607  25.522  16.893  0.00  0.00    -0.273 OA
ATOM     18  N   ASN A   9     -12.844  23.442  16.448  0.00  0.00    -0.298 N 
ATOM     19  H   ASN A   9     -12.378  22.583  16.804  0.00  0.00    +0.150 HD
BRANCH  18  20
ATOM     20  CA  ASN A   9     -13.230  23.542  15.006  0.00  0.00    +0.146 C 
BRANCH  20  21
ATOM     21  C   ASN A   9     -14.745  23.735  14.818  0.00  0.00    +0.227 C 
ATOM     22  O   ASN A   9     -15.153  24.427  13.922  0.00  0.00    -0.286 OA
ENDBRANCH  20  21
BRANCH  20  23
ATOM     23  CB  ASN A   9     -12.727  22.386  14.110  0.00  0.00    +0.112 C 
BRANCH  23  24
ATOM     24  CG  ASN A   9     -13.135  21.023  14.620  0.00  0.00    +0.222 C 
ATOM     25  OD1 ASN A   9     -13.707  20.894  15.699  0.00  0.00    -0.275 OA
ATOM     26  ND2 ASN A   9     -12.799  19.987  13.865  0.00  0.00    -0.329 N 
ATOM     27 HD21 ASN A   9     -13.019  19.021  14.180  0.00  0.00    +0.145 HD
ATOM     28 HD22 ASN A   9     -12.315  20.140  12.957  0.00  0.00    +0.145 HD
ENDBRANCH  23  24
ENDBRANCH  20  23
ENDBRANCH  18  20
ENDBRANCH  15  16
BRANCH  15  29
ATOM     29  CB  ARG A   8     -11.461  24.988  19.162  0.00  0.00    +0.033 C 
BRANCH  29  30
ATOM     30  CG  ARG A   8     -11.234  25.169  20.687  0.00  0.00    +0.045 C 
BRANCH  30  31
ATOM     31  CD  ARG A   8      -9.906  25.952  21.012  0.00  0.00    +0.174 C 
BRANCH  31  32
ATOM     32  NE  ARG A   8      -8.732  25.252  20.480  0.00  0.00    -0.265 N 
ATOM     33  HE  ARG A   8      -8.310  24.506  21.070  0.00  0.00    +0.259 HD
ATOM     34  CZ  ARG A   8      -8.164  25.497  19.300  0.00  0.00    +0.342 C 
ATOM     35  NH2 ARG A   8      -7.126  24.761  18.902  0.00  0.00    -0.292 N 
ATOM     36 HH21 ARG A   8      -6.764  24.000  19.512  0.00  0.00    +0.255 HD
ATOM     37 HH22 ARG A   8      -6.679  24.948  17.982  0.00  0.00    +0.255 HD
ATOM     38  NH1 ARG A   8      -8.625  26.465  18.510  0.00  0.00    -0.292 N 
ATOM     39 HH11 ARG A   8      -9.437  27.040  18.812  0.00  0.00    +0.255 HD
ATOM     40 HH12 ARG A   8      -8.173  26.646  17.591  0.00  0.00    +0.255 HD
ENDBRANCH  31  32
ENDBRANCH  30  31
ENDBRANCH  29  30
ENDBRANCH  15  29
ENDBRANCH  12  15
ENDBRANCH  10  11
ENDBRANCH   8  10
ENDBRANCH   5   6
BRANCH   5  41
ATOM     41  CB  ILE A   6     -18.620  19.892  20.521  0.00  0.00    +0.027 C 
ATOM     42  CG2 ILE A   6     -18.635  21.050  19.523  0.00  0.00    +0.002 C 
BRANCH  41  43
ATOM     43  CG1 ILE A   6     -19.875  18.964  20.438  0.00  0.00    +0.002 C 
ATOM     44  CD1 ILE A   6     -20.028  18.184  19.108  0.00  0.00    +0.000 C 
ENDBRANCH  41  43
ENDBRANCH   5  41
ENDBRANCH   2   5
BRANCH   1  45
ATOM     45  CA  ILE A   5     -16.658  15.915  22.238  0.00  0.00    +0.149 C 
BRANCH  45  48
ATOM     46  C   ASN A   4     -17.983  13.960  22.725  0.00  0.00    +0.241 C 
ATOM     47  O   ASN A   4     -18.416  14.474  23.757  0.00  0.00    -0.273 OA
ATOM     48  N   ILE A   5     -17.107  14.561  21.926  0.00  0.00    -0.297 N 
ATOM     49  H   ILE A   5     -16.744  14.070  21.084  0.00  0.00    +0.150 HD
BRANCH  46  50
ATOM     50  CA  ASN A   4     -18.369  12.548  22.346  0.00  0.00    +0.158 C 
BRANCH  50  53
ATOM     51  C   LEU A   3     -17.246  11.420  24.177  0.00  0.00    +0.241 C 
ATOM     52  O   LEU A   3     -16.128  11.737  23.769  0.00  0.00    -0.273 OA
ATOM     53  N   ASN A   4     -18.363  11.706  23.519  0.00  0.00    -0.297 N 
ATOM     54  H   ASN A   4     -19.263  11.311  23.859  0.00  0.00    +0.150 HD
BRANCH  51  55
ATOM     55  CA  LEU A   3     -17.397  10.692  25.519  0.00  0.00    +0.149 C 
BRANCH  55  58
ATOM     56  C   PRO A   2     -16.233   8.594  26.324  0.00  0.00    +0.241 C 
ATOM     57  O   PRO A   2     -17.215   8.091  26.854  0.00  0.00    -0.273 OA
ATOM     58  N   LEU A   3     -16.242   9.769  25.670  0.00  0.00    -0.297 N 
ATOM     59  H   LEU A   3     -15.349  10.062  25.224  0.00  0.00    +0.150 HD
BRANCH  56  62
ATOM     60  C   THR A   1     -14.071   7.882  24.090  0.00  0.00    +0.244 C 
ATOM     61  N   PRO A   2     -13.887   8.230  25.384  0.00  0.00    -0.272 N 
ATOM     62  CA  PRO A   2     -14.887   7.853  26.410  0.00  0.00    +0.152 C 
ATOM     63  CB  PRO A   2     -14.199   8.221  27.727  0.00  0.00    +0.031 C 
ATOM     64  CG  PRO A   2     -12.778   8.382  27.381  0.00  0.00    +0.024 C 
ATOM     65  CD  PRO A   2     -12.765   8.951  25.998  0.00  0.00    +0.094 C 
ATOM     66  O   THR A   1     -15.017   7.153  23.742  0.00  0.00    -0.273 OA
BRANCH  60  67
ATOM     67  CA  THR A   1     -13.042   8.387  23.031  0.00  0.00    +0.172 C 
BRANCH  67  68
ATOM     68  CB  THR A   1     -13.435   9.783  22.426  0.00  0.00    +0.135 C 
ATOM     69  CG2 THR A   1     -14.813   9.745  21.712  0.00  0.00    +0.034 C 
BRANCH  68  70
ATOM     70  OG1 THR A   1     -13.472  10.795  23.445  0.00  0.00    -0.383 OA
ATOM     71  HG1 THR A   1     -14.141  10.546  24.131  0.00  0.00    +0.210 HD
ENDBRANCH  68  70
ENDBRANCH  67  68
BRANCH  67  72
ATOM     72  N   THR A   1     -12.914   7.391  21.953  0.00  0.00    -0.236 NA
ATOM     73  H   THR A   1     -13.159   7.686  20.986  0.00  0.00    +0.142 HD
ENDBRANCH  67  72
ENDBRANCH  60  67
ENDBRANCH  56  62
ENDBRANCH  55  58
BRANCH  55  74
ATOM     74  CB  LEU A   3     -17.387  11.787  26.608  0.00  0.00    +0.029 C 
BRANCH  74  75
ATOM     75  CG  LEU A   3     -18.096  11.641  27.972  0.00  0.00    +0.002 C 
ATOM     76  CD2 LEU A   3     -17.429  12.506  29.042  0.00  0.00    +0.000 C 
ATOM     77  CD1 LEU A   3     -19.608  11.952  27.927  0.00  0.00    +0.000 C 
ENDBRANCH  74  75
ENDBRANCH  55  74
ENDBRANCH  51  55
ENDBRANCH  50  53
BRANCH  50  78
ATOM     78  CB  ASN A   4     -19.738  12.521  21.669  0.00  0.00    +0.114 C 
BRANCH  78  79
ATOM     79  CG  ASN A   4     -20.193  11.101  21.353  0.00  0.00    +0.222 C 
ATOM     80  ND2 ASN A   4     -21.484  10.835  21.533  0.00  0.00    -0.329 N 
ATOM     81 HD21 ASN A   4     -22.130  11.585  21.854  0.00  0.00    +0.145 HD
ATOM     82 HD22 ASN A   4     -21.848   9.877  21.353  0.00  0.00    +0.145 HD
ATOM     83  OD1 ASN A   4     -19.382  10.250  20.974  0.00  0.00    -0.275 OA
ENDBRANCH  78  79
ENDBRANCH  50  78
ENDBRANCH  46  50
ENDBRANCH  45  48
BRANCH  45  84
ATOM     84  CB  ILE A   5     -15.241  15.973  22.851  0.00  0.00    +0.027 C 
ATOM     85  CG2 ILE A   5     -15.179  15.286  24.198  0.00  0.00    +0.002 C 
BRANCH  84  86
ATOM     86  CG1 ILE A   5     -14.234  15.285  21.964  0.00  0.00    +0.002 C 
ATOM     87  CD1 ILE A   5     -12.860  15.469  22.458  0.00  0.00    +0.000 C 
ENDBRANCH  84  86
ENDBRANCH  45  84
ENDBRANCH   1  45
TORSDOF 33
REMARK  Name = ../refined-set-2016/3ttp/3ttp_pocket.pdb
REMARK  209 active torsions:
REMARK  status: ('A' for Active; 'I' for Inactive)
REMARK    1  A    between atoms: _1  and  _3
REMARK    2  A    between atoms: _3  and  _4
REMARK    3  A    between atoms: _3  and  _6
REMARK    4  A    between atoms: _6  and  _7
REMARK    5  A    between atoms: _7  and  _8
REMARK    6  A    between atoms: _8  and  _9
REMARK    7  A    between atoms: _18  and  _20
REMARK    8  A    between atoms: _20  and  _21
REMARK    9  A    between atoms: _20  and  _23
REMARK   10  A    between atoms: _23  and  _24
REMARK   11  A    between atoms: _27  and  _29
REMARK   12  A    between atoms: _29  and  _30
REMARK   13  A    between atoms: _29  and  _32
REMARK   14  A    between atoms: _32  and  _33
REMARK   15  A    between atoms: _36  and  _38
REMARK   16  A    between atoms: _38  and  _39
REMARK   17  A    between atoms: _38  and  _41
REMARK   18  A    between atoms: _41  and  _42
REMARK   19  A    between atoms: _45  and  _47
REMARK   20  A    between atoms: _47  and  _48
REMARK   21  A    between atoms: _47  and  _50
REMARK   22  A    between atoms: _50  and  _51
REMARK   23  A    between atoms: _54  and  _56
REMARK   24  A    between atoms: _56  and  _57
REMARK   25  A    between atoms: _59  and  _61
REMARK   26  A    between atoms: _61  and  _62
REMARK   27  A    between atoms: _65  and  _67
REMARK   28  A    between atoms: _67  and  _68
REMARK   29  A    between atoms: _67  and  _70
REMARK   30  A    between atoms: _70  and  _71
REMARK   31  A    between atoms: _74  and  _76
REMARK   32  A    between atoms: _76  and  _77
REMARK   33  A    between atoms: _76  and  _79
REMARK   34  A    between atoms: _79  and  _80
REMARK   35  A    between atoms: _83  and  _85
REMARK   36  A    between atoms: _85  and  _86
REMARK   37  A    between atoms: _85  and  _88
REMARK   38  A    between atoms: _88  and  _89
REMARK   39  A    between atoms: _92  and  _94
REMARK   40  A    between atoms: _94  and  _95
REMARK   41  A    between atoms: _94  and  _97
REMARK   42  A    between atoms: _97  and  _98
REMARK   43  A    between atoms: _101  and  _103
REMARK   44  A    between atoms: _103  and  _104
REMARK   45  A    between atoms: _103  and  _106
REMARK   46  A    between atoms: _106  and  _107
REMARK   47  A    between atoms: _107  and  _108
REMARK   48  A    between atoms: _110  and  _112
REMARK   49  A    between atoms: _112  and  _113
REMARK   50  A    between atoms: _112  and  _115
REMARK   51  A    between atoms: _118  and  _120
REMARK   52  A    between atoms: _120  and  _121
REMARK   53  A    between atoms: _123  and  _125
REMARK   54  A    between atoms: _125  and  _126
REMARK   55  A    between atoms: _128  and  _130
REMARK   56  A    between atoms: _130  and  _131
REMARK   57  A    between atoms: _130  and  _133
REMARK   58  A    between atoms: _133  and  _134
REMARK   59  A    between atoms: _137  and  _139
REMARK   60  A    between atoms: _139  and  _140
REMARK   61  A    between atoms: _142  and  _144
REMARK   62  A    between atoms: _144  and  _145
REMARK   63  A    between atoms: _147  and  _149
REMARK   64  A    between atoms: _149  and  _150
REMARK   65  A    between atoms: _149  and  _152
REMARK   66  A    between atoms: _152  and  _153
REMARK   67  A    between atoms: _153  and  _154
REMARK   68  A    between atoms: _156  and  _158
REMARK   69  A    between atoms: _158  and  _159
REMARK   70  A    between atoms: _158  and  _161
REMARK   71  A    between atoms: _161  and  _162
REMARK   72  A    between atoms: _165  and  _167
REMARK   73  A    between atoms: _167  and  _168
REMARK   74  A    between atoms: _167  and  _170
REMARK   75  A    between atoms: _170  and  _171
REMARK   76  A    between atoms: _175  and  _176
REMARK   77  A    between atoms: _181  and  _183
REMARK   78  A    between atoms: _183  and  _184
REMARK   79  A    between atoms: _183  and  _186
REMARK   80  A    between atoms: _186  and  _187
REMARK   81  A    between atoms: _190  and  _192
REMARK   82  A    between atoms: _192  and  _193
REMARK   83  A    between atoms: _192  and  _195
REMARK   84  A    between atoms: _195  and  _196
REMARK   85  A    between atoms: _201  and  _203
REMARK   86  A    between atoms: _203  and  _204
REMARK   87  A    between atoms: _203  and  _206
REMARK   88  A    between atoms: _206  and  _207
REMARK   89  A    between atoms: _210  and  _212
REMARK   90  A    between atoms: _212  and  _213
REMARK   91  A    between atoms: _212  and  _215
REMARK   92  A    between atoms: _215  and  _216
REMARK   93  A    between atoms: _219  and  _221
REMARK   94  A    between atoms: _221  and  _222
REMARK   95  A    between atoms: _224  and  _226
REMARK   96  A    between atoms: _226  and  _227
REMARK   97  A    between atoms: _226  and  _229
REMARK   98  A    between atoms: _229  and  _230
REMARK   99  A    between atoms: _230  and  _231
REMARK  100  A    between atoms: _231  and  _232
REMARK  101  A    between atoms: _241  and  _243
REMARK  102  A    between atoms: _243  and  _244
REMARK  103  A    between atoms: _243  and  _246
REMARK  104  A    between atoms: _246  and  _247
REMARK  105  A    between atoms: _252  and  _254
REMARK  106  A    between atoms: _254  and  _255
REMARK  107  A    between atoms: _254  and  _257
REMARK  108  A    between atoms: _257  and  _258
REMARK  109  A    between atoms: _258  and  _259
REMARK  110  A    between atoms: _259  and  _260
REMARK  111  A    between atoms: _269  and  _271
REMARK  112  A    between atoms: _271  and  _272
REMARK  113  A    between atoms: _271  and  _274
REMARK  114  A    between atoms: _274  and  _275
REMARK  115  A    between atoms: _278  and  _280
REMARK  116  A    between atoms: _280  and  _281
REMARK  117  A    between atoms: _280  and  _283
REMARK  118  A    between atoms: _283  and  _284
REMARK  119  A    between atoms: _287  and  _289
REMARK  120  A    between atoms: _289  and  _290
REMARK  121  A    between atoms: _289  and  _292
REMARK  122  A    between atoms: _292  and  _293
REMARK  123  A    between atoms: _296  and  _298
REMARK  124  A    between atoms: _298  and  _299
REMARK  125  A    between atoms: _298  and  _301
REMARK  126  A    between atoms: _301  and  _302
REMARK  127  A    between atoms: _305  and  _307
REMARK  128  A    between atoms: _307  and  _308
REMARK  129  A    between atoms: _310  and  _312
REMARK  130  A    between atoms: _312  and  _313
REMARK  131  A    between atoms: _316  and  _318
REMARK  132  A    between atoms: _318  and  _319
REMARK  133  A    between atoms: _318  and  _321
REMARK  134  A    between atoms: _321  and  _322
REMARK  135  A    between atoms: _325  and  _327
REMARK  136  A    between atoms: _327  and  _328
REMARK  137  A    between atoms: _327  and  _330
REMARK  138  A    between atoms: _330  and  _331
REMARK  139  A    between atoms: _334  and  _336
REMARK  140  A    between atoms: _336  and  _337
REMARK  141  A    between atoms: _336  and  _339
REMARK  142  A    between atoms: _339  and  _340
REMARK  143  A    between atoms: _343  and  _345
REMARK  144  A    between atoms: _345  and  _346
REMARK  145  A    between atoms: _345  and  _348
REMARK  146  A    between atoms: _348  and  _349
REMARK  147  A    between atoms: _352  and  _354
REMARK  148  A    between atoms: _354  and  _355
REMARK  149  A    between atoms: _354  and  _357
REMARK  150  A    between atoms: _357  and  _358
REMARK  151  A    between atoms: _358  and  _359
REMARK  152  A    between atoms: _361  and  _363
REMARK  153  A    between atoms: _363  and  _364
REMARK  154  A    between atoms: _363  and  _366
REMARK  155  A    between atoms: _369  and  _371
REMARK  156  A    between atoms: _371  and  _372
REMARK  157  A    between atoms: _374  and  _376
REMARK  158  A    between atoms: _376  and  _377
REMARK  159  A    between atoms: _379  and  _381
REMARK  160  A    between atoms: _381  and  _382
REMARK  161  A    between atoms: _381  and  _384
REMARK  162  A    between atoms: _384  and  _385
REMARK  163  A    between atoms: _388  and  _390
REMARK  164  A    between atoms: _390  and  _391
REMARK  165  A    between atoms: _393  and  _395
REMARK  166  A    between atoms: _395  and  _396
REMARK  167  A    between atoms: _398  and  _400
REMARK  168  A    between atoms: _400  and  _401
REMARK  169  A    between atoms: _400  and  _403
REMARK  170  A    between atoms: _403  and  _404
REMARK  171  A    between atoms: _404  and  _405
REMARK  172  A    between atoms: _407  and  _409
REMARK  173  A    between atoms: _409  and  _410
REMARK  174  A    between atoms: _409  and  _412
REMARK  175  A    between atoms: _412  and  _413
REMARK  176  A    between atoms: _417  and  _418
REMARK  177  A    between atoms: _423  and  _425
REMARK  178  A    between atoms: _425  and  _426
REMARK  179  A    between atoms: _425  and  _428
REMARK  180  A    between atoms: _428  and  _429
REMARK  181  A    between atoms: _433  and  _434
REMARK  182  A    between atoms: _439  and  _441
REMARK  183  A    between atoms: _441  and  _442
REMARK  184  A    between atoms: _441  and  _444
REMARK  185  A    between atoms: _444  and  _445
REMARK  186  A    between atoms: _448  and  _450
REMARK  187  A    between atoms: _450  and  _451
REMARK  188  A    between atoms: _450  and  _453
REMARK  189  A    between atoms: _453  and  _454
REMARK  190  A    between atoms: _459  and  _461
REMARK  191  A    between atoms: _461  and  _462
REMARK  192  A    between atoms: _461  and  _464
REMARK  193  A    between atoms: _464  and  _465
REMARK  194  A    between atoms: _468  and  _470
REMARK  195  A    between atoms: _470  and  _471
REMARK  196  A    between atoms: _470  and  _473
REMARK  197  A    between atoms: _473  and  _474
REMARK  198  A    between atoms: _477  and  _479
REMARK  199  A    between atoms: _479  and  _480
REMARK  200  A    between atoms: _482  and  _484
REMARK  201  A    between atoms: _484  and  _485
REMARK  202  A    between atoms: _484  and  _487
REMARK  203  A    between atoms: _487  and  _488
REMARK  204  A    between atoms: _488  and  _489
REMARK  205  A    between atoms: _489  and  _490
REMARK  206  A    between atoms: _499  and  _501
REMARK  207  A    between atoms: _501  and  _502
REMARK  208  A    between atoms: _501  and  _504
REMARK  209  A    between atoms: _504  and  _505
REMARK                            x       y       z     vdW  Elec       q    Type
REMARK                         _______ _______ _______ _____ _____    ______ ____
ROOT
ATOM      1  NE  ARG A   1      -3.838  23.310  21.168  0.00  0.00    -0.265 N 
ATOM      2  CZ  ARG A   1      -3.029  22.268  21.335  0.00  0.00    +0.342 C 
ATOM      3  NH2 ARG A   1      -2.471  22.024  22.509  0.00  0.00    -0.292 N 
ATOM      4 HH21 ARG A   1      -2.663  22.651  23.316  0.00  0.00    +0.255 HD
ATOM      5 HH22 ARG A   1      -1.840  21.205  22.625  0.00  0.00    +0.255 HD
ATOM      6  NH1 ARG A   1      -2.780  21.464  20.314  0.00  0.00    -0.292 N 
ATOM      7 HH11 ARG A   1      -2.148  20.647  20.437  0.00  0.00    +0.255 HD
ATOM      8 HH12 ARG A   1      -3.216  21.649  19.388  0.00  0.00    +0.255 HD
ATOM      9  HE  ARG A   1      -4.243  23.454  20.221  0.00  0.00    +0.259 HD
ENDROOT
BRANCH   1  10
ATOM     10  CD  ARG A   1      -4.202  24.266  22.206  0.00  0.00    +0.174 C 
BRANCH  10  11
ATOM     11  CG  ARG A   1      -4.954  25.402  21.589  0.00  0.00    +0.045 C 
BRANCH  11  12
ATOM     12  CB  ARG A   1      -5.209  26.489  22.594  0.00  0.00    +0.029 C 
BRANCH  12  13
ATOM     13  CA  ARG A   1      -6.305  27.472  22.192  0.00  0.00    +0.133 C 
BRANCH  13  14
ATOM     14  N   ARG A   1      -6.069  28.066  20.870  0.00  0.00    -0.239 NA
ATOM     15  H   ARG A   1      -5.180  27.880  20.363  0.00  0.00    +0.142 HD
ENDBRANCH  13  14
BRANCH  13  16
ATOM     16  C   ARG A   1      -6.426  28.584  23.239  0.00  0.00    +0.224 C 
ATOM     17  O   ARG A   1      -5.596  29.484  23.263  0.00  0.00    -0.287 OA
ENDBRANCH  13  16
ENDBRANCH  12  13
ENDBRANCH  11  12
ENDBRANCH  10  11
ENDBRANCH   1  10
TORSDOF 6
REMARK  Name = ../refined-set-2016/3ttp/3ttp_pocket.pdb
REMARK  209 active torsions:
REMARK  status: ('A' for Active; 'I' for Inactive)
REMARK    1  A    between atoms: _1  and  _3
REMARK    2  A    between atoms: _3  and  _4
REMARK    3  A    between atoms: _3  and  _6
REMARK    4  A    between atoms: _6  and  _7
REMARK    5  A    between atoms: _7  and  _8
REMARK    6  A    between atoms: _8  and  _9
REMARK    7  A    between atoms: _18  and  _20
REMARK    8  A    between atoms: _20  and  _21
REMARK    9  A    between atoms: _20  and  _23
REMARK   10  A    between atoms: _23  and  _24
REMARK   11  A    between atoms: _27  and  _29
REMARK   12  A    between atoms: _29  and  _30
REMARK   13  A    between atoms: _29  and  _32
REMARK   14  A    between atoms: _32  and  _33
REMARK   15  A    between atoms: _36  and  _38
REMARK   16  A    between atoms: _38  and  _39
REMARK   17  A    between atoms: _38  and  _41
REMARK   18  A    between atoms: _41  and  _42
REMARK   19  A    between atoms: _45  and  _47
REMARK   20  A    between atoms: _47  and  _48
REMARK   21  A    between atoms: _47  and  _50
REMARK   22  A    between atoms: _50  and  _51
REMARK   23  A    between atoms: _54  and  _56
REMARK   24  A    between atoms: _56  and  _57
REMARK   25  A    between atoms: _59  and  _61
REMARK   26  A    between atoms: _61  and  _62
REMARK   27  A    between atoms: _65  and  _67
REMARK   28  A    between atoms: _67  and  _68
REMARK   29  A    between atoms: _67  and  _70
REMARK   30  A    between atoms: _70  and  _71
REMARK   31  A    between atoms: _74  and  _76
REMARK   32  A    between atoms: _76  and  _77
REMARK   33  A    between atoms: _76  and  _79
REMARK   34  A    between atoms: _79  and  _80
REMARK   35  A    between atoms: _83  and  _85
REMARK   36  A    between atoms: _85  and  _86
REMARK   37  A    between atoms: _85  and  _88
REMARK   38  A    between atoms: _88  and  _89
REMARK   39  A    between atoms: _92  and  _94
REMARK   40  A    between atoms: _94  and  _95
REMARK   41  A    between atoms: _94  and  _97
REMARK   42  A    between atoms: _97  and  _98
REMARK   43  A    between atoms: _101  and  _103
REMARK   44  A    between atoms: _103  and  _104
REMARK   45  A    between atoms: _103  and  _106
REMARK   46  A    between atoms: _106  and  _107
REMARK   47  A    between atoms: _107  and  _108
REMARK   48  A    between atoms: _110  and  _112
REMARK   49  A    between atoms: _112  and  _113
REMARK   50  A    between atoms: _112  and  _115
REMARK   51  A    between atoms: _118  and  _120
REMARK   52  A    between atoms: _120  and  _121
REMARK   53  A    between atoms: _123  and  _125
REMARK   54  A    between atoms: _125  and  _126
REMARK   55  A    between atoms: _128  and  _130
REMARK   56  A    between atoms: _130  and  _131
REMARK   57  A    between atoms: _130  and  _133
REMARK   58  A    between atoms: _133  and  _134
REMARK   59  A    between atoms: _137  and  _139
REMARK   60  A    between atoms: _139  and  _140
REMARK   61  A    between atoms: _142  and  _144
REMARK   62  A    between atoms: _144  and  _145
REMARK   63  A    between atoms: _147  and  _149
REMARK   64  A    between atoms: _149  and  _150
REMARK   65  A    between atoms: _149  and  _152
REMARK   66  A    between atoms: _152  and  _153
REMARK   67  A    between atoms: _153  and  _154
REMARK   68  A    between atoms: _156  and  _158
REMARK   69  A    between atoms: _158  and  _159
REMARK   70  A    between atoms: _158  and  _161
REMARK   71  A    between atoms: _161  and  _162
REMARK   72  A    between atoms: _165  and  _167
REMARK   73  A    between atoms: _167  and  _168
REMARK   74  A    between atoms: _167  and  _170
REMARK   75  A    between atoms: _170  and  _171
REMARK   76  A    between atoms: _175  and  _176
REMARK   77  A    between atoms: _181  and  _183
REMARK   78  A    between atoms: _183  and  _184
REMARK   79  A    between atoms: _183  and  _186
REMARK   80  A    between atoms: _186  and  _187
REMARK   81  A    between atoms: _190  and  _192
REMARK   82  A    between atoms: _192  and  _193
REMARK   83  A    between atoms: _192  and  _195
REMARK   84  A    between atoms: _195  and  _196
REMARK   85  A    between atoms: _201  and  _203
REMARK   86  A    between atoms: _203  and  _204
REMARK   87  A    between atoms: _203  and  _206
REMARK   88  A    between atoms: _206  and  _207
REMARK   89  A    between atoms: _210  and  _212
REMARK   90  A    between atoms: _212  and  _213
REMARK   91  A    between atoms: _212  and  _215
REMARK   92  A    between atoms: _215  and  _216
REMARK   93  A    between atoms: _219  and  _221
REMARK   94  A    between atoms: _221  and  _222
REMARK   95  A    between atoms: _224  and  _226
REMARK   96  A    between atoms: _226  and  _227
REMARK   97  A    between atoms: _226  and  _229
REMARK   98  A    between atoms: _229  and  _230
REMARK   99  A    between atoms: _230  and  _231
REMARK  100  A    between atoms: _231  and  _232
REMARK  101  A    between atoms: _241  and  _243
REMARK  102  A    between atoms: _243  and  _244
REMARK  103  A    between atoms: _243  and  _246
REMARK  104  A    between atoms: _246  and  _247
REMARK  105  A    between atoms: _252  and  _254
REMARK  106  A    between atoms: _254  and  _255
REMARK  107  A    between atoms: _254  and  _257
REMARK  108  A    between atoms: _257  and  _258
REMARK  109  A    between atoms: _258  and  _259
REMARK  110  A    between atoms: _259  and  _260
REMARK  111  A    between atoms: _269  and  _271
REMARK  112  A    between atoms: _271  and  _272
REMARK  113  A    between atoms: _271  and  _274
REMARK  114  A    between atoms: _274  and  _275
REMARK  115  A    between atoms: _278  and  _280
REMARK  116  A    between atoms: _280  and  _281
REMARK  117  A    between atoms: _280  and  _283
REMARK  118  A    between atoms: _283  and  _284
REMARK  119  A    between atoms: _287  and  _289
REMARK  120  A    between atoms: _289  and  _290
REMARK  121  A    between atoms: _289  and  _292
REMARK  122  A    between atoms: _292  and  _293
REMARK  123  A    between atoms: _296  and  _298
REMARK  124  A    between atoms: _298  and  _299
REMARK  125  A    between atoms: _298  and  _301
REMARK  126  A    between atoms: _301  and  _302
REMARK  127  A    between atoms: _305  and  _307
REMARK  128  A    between atoms: _307  and  _308
REMARK  129  A    between atoms: _310  and  _312
REMARK  130  A    between atoms: _312  and  _313
REMARK  131  A    between atoms: _316  and  _318
REMARK  132  A    between atoms: _318  and  _319
REMARK  133  A    between atoms: _318  and  _321
REMARK  134  A    between atoms: _321  and  _322
REMARK  135  A    between atoms: _325  and  _327
REMARK  136  A    between atoms: _327  and  _328
REMARK  137  A    between atoms: _327  and  _330
REMARK  138  A    between atoms: _330  and  _331
REMARK  139  A    between atoms: _334  and  _336
REMARK  140  A    between atoms: _336  and  _337
REMARK  141  A    between atoms: _336  and  _339
REMARK  142  A    between atoms: _339  and  _340
REMARK  143  A    between atoms: _343  and  _345
REMARK  144  A    between atoms: _345  and  _346
REMARK  145  A    between atoms: _345  and  _348
REMARK  146  A    between atoms: _348  and  _349
REMARK  147  A    between atoms: _352  and  _354
REMARK  148  A    between atoms: _354  and  _355
REMARK  149  A    between atoms: _354  and  _357
REMARK  150  A    between atoms: _357  and  _358
REMARK  151  A    between atoms: _358  and  _359
REMARK  152  A    between atoms: _361  and  _363
REMARK  153  A    between atoms: _363  and  _364
REMARK  154  A    between atoms: _363  and  _366
REMARK  155  A    between atoms: _369  and  _371
REMARK  156  A    between atoms: _371  and  _372
REMARK  157  A    between atoms: _374  and  _376
REMARK  158  A    between atoms: _376  and  _377
REMARK  159  A    between atoms: _379  and  _381
REMARK  160  A    between atoms: _381  and  _382
REMARK  161  A    between atoms: _381  and  _384
REMARK  162  A    between atoms: _384  and  _385
REMARK  163  A    between atoms: _388  and  _390
REMARK  164  A    between atoms: _390  and  _391
REMARK  165  A    between atoms: _393  and  _395
REMARK  166  A    between atoms: _395  and  _396
REMARK  167  A    between atoms: _398  and  _400
REMARK  168  A    between atoms: _400  and  _401
REMARK  169  A    between atoms: _400  and  _403
REMARK  170  A    between atoms: _403  and  _404
REMARK  171  A    between atoms: _404  and  _405
REMARK  172  A    between atoms: _407  and  _409
REMARK  173  A    between atoms: _409  and  _410
REMARK  174  A    between atoms: _409  and  _412
REMARK  175  A    between atoms: _412  and  _413
REMARK  176  A    between atoms: _417  and  _418
REMARK  177  A    between atoms: _423  and  _425
REMARK  178  A    between atoms: _425  and  _426
REMARK  179  A    between atoms: _425  and  _428
REMARK  180  A    between atoms: _428  and  _429
REMARK  181  A    between atoms: _433  and  _434
REMARK  182  A    between atoms: _439  and  _441
REMARK  183  A    between atoms: _441  and  _442
REMARK  184  A    between atoms: _441  and  _444
REMARK  185  A    between atoms: _444  and  _445
REMARK  186  A    between atoms: _448  and  _450
REMARK  187  A    between atoms: _450  and  _451
REMARK  188  A    between atoms: _450  and  _453
REMARK  189  A    between atoms: _453  and  _454
REMARK  190  A    between atoms: _459  and  _461
REMARK  191  A    between atoms: _461  and  _462
REMARK  192  A    between atoms: _461  and  _464
REMARK  193  A    between atoms: _464  and  _465
REMARK  194  A    between atoms: _468  and  _470
REMARK  195  A    between atoms: _470  and  _471
REMARK  196  A    between atoms: _470  and  _473
REMARK  197  A    between atoms: _473  and  _474
REMARK  198  A    between atoms: _477  and  _479
REMARK  199  A    between atoms: _479  and  _480
REMARK  200  A    between atoms: _482  and  _484
REMARK  201  A    between atoms: _484  and  _485
REMARK  202  A    between atoms: _484  and  _487
REMARK  203  A    between atoms: _487  and  _488
REMARK  204  A    between atoms: _488  and  _489
REMARK  205  A    between atoms: _489  and  _490
REMARK  206  A    between atoms: _499  and  _501
REMARK  207  A    between atoms: _501  and  _502
REMARK  208  A    between atoms: _501  and  _504
REMARK  209  A    between atoms: _504  and  _505
REMARK                            x       y       z     vdW  Elec       q    Type
REMARK                         _______ _______ _______ _____ _____    ______ ____
ROOT
ATOM      1  C   GLY A   5     -13.490  18.740  30.022  0.00  0.00    +0.243 C 
ATOM      2  N   ALA A   6     -12.853  19.475  30.923  0.00  0.00    -0.297 N 
ATOM      3  H   ALA A   6     -12.858  20.511  30.829  0.00  0.00    +0.150 HD
ATOM      4  O   GLY A   5     -13.526  17.512  30.073  0.00  0.00    -0.273 OA
ENDROOT
BRANCH   2   5
ATOM      5  CA  ALA A   6     -12.143  18.863  32.046  0.00  0.00    +0.149 C 
ATOM      6  CB  ALA A   6     -10.726  19.444  32.154  0.00  0.00    +0.031 C 
BRANCH   5   7
ATOM      7  C   ALA A   6     -12.895  19.123  33.320  0.00  0.00    +0.241 C 
ATOM      8  N   ASP A   7     -13.169  18.065  34.078  0.00  0.00    -0.297 N 
ATOM      9  H   ASP A   7     -12.843  17.124  33.780  0.00  0.00    +0.150 HD
ATOM     10  O   ALA A   6     -13.182  20.289  33.645  0.00  0.00    -0.273 OA
BRANCH   8  11
ATOM     11  CA  ASP A   7     -13.926  18.205  35.331  0.00  0.00    +0.160 C 
BRANCH  11  12
ATOM     12  C   ASP A   7     -13.029  18.875  36.351  0.00  0.00    +0.241 C 
ATOM     13  O   ASP A   7     -13.491  19.671  37.184  0.00  0.00    -0.273 OA
ATOM     14  N   ASP A   8     -11.746  18.538  36.260  0.00  0.00    -0.297 N 
ATOM     15  H   ASP A   8     -11.420  18.043  35.405  0.00  0.00    +0.150 HD
BRANCH  14  16
ATOM     16  CA  ASP A   8     -10.781  18.833  37.306  0.00  0.00    +0.160 C 
BRANCH  16  17
ATOM     17  C   ASP A   8      -9.553  19.601  36.771  0.00  0.00    +0.241 C 
ATOM     18  N   THR A   9      -8.853  20.275  37.664  0.00  0.00    -0.295 N 
ATOM     19  H   THR A   9      -9.146  20.249  38.662  0.00  0.00    +0.150 HD
ATOM     20  O   ASP A   8      -9.254  19.603  35.577  0.00  0.00    -0.273 OA
BRANCH  18  21
ATOM     21  CA  THR A   9      -7.675  21.059  37.287  0.00  0.00    +0.176 C 
BRANCH  21  22
ATOM     22  C   THR A   9      -6.397  20.254  37.478  0.00  0.00    +0.243 C 
ATOM     23  O   THR A   9      -6.168  19.661  38.538  0.00  0.00    -0.273 OA
ATOM     24  N   ILE A  10      -5.570  20.226  36.439  0.00  0.00    -0.298 N 
ATOM     25  H   ILE A  10      -5.792  20.770  35.581  0.00  0.00    +0.150 HD
BRANCH  24  26
ATOM     26  CA  ILE A  10      -4.355  19.433  36.505  0.00  0.00    +0.137 C 
BRANCH  26  27
ATOM     27  C   ILE A  10      -3.102  20.031  35.856  0.00  0.00    +0.227 C 
ATOM     28  O   ILE A  10      -3.130  20.552  34.754  0.00  0.00    -0.286 OA
ENDBRANCH  26  27
BRANCH  26  29
ATOM     29  CB  ILE A  10      -4.606  17.971  36.011  0.00  0.00    +0.026 C 
ATOM     30  CG2 ILE A  10      -5.388  17.949  34.752  0.00  0.00    +0.002 C 
BRANCH  29  31
ATOM     31  CG1 ILE A  10      -3.284  17.226  35.790  0.00  0.00    +0.002 C 
ATOM     32  CD1 ILE A  10      -3.513  15.736  35.742  0.00  0.00    +0.000 C 
ENDBRANCH  29  31
ENDBRANCH  26  29
ENDBRANCH  24  26
ENDBRANCH  21  22
BRANCH  21  33
ATOM     33  CB  THR A   9      -7.644  22.370  38.083  0.00  0.00    +0.137 C 
ATOM     34  CG2 THR A   9      -6.351  23.138  37.840  0.00  0.00    +0.034 C 
BRANCH  33  35
ATOM     35  OG1 THR A   9      -8.770  23.174  37.668  0.00  0.00    -0.382 OA
ATOM     36  HG1 THR A   9      -9.610  22.683  37.851  0.00  0.00    +0.210 HD
ENDBRANCH  33  35
ENDBRANCH  21  33
ENDBRANCH  18  21
ENDBRANCH  16  17
BRANCH  16  37
ATOM     37  CB  ASP A   8     -10.367  17.535  38.035  0.00  0.00    +0.143 C 
BRANCH  37  38
ATOM     38  CG  ASP A   8     -11.563  16.797  38.676  0.00  0.00    +0.367 C 
ATOM     39  OD2 ASP A   8     -12.260  17.387  39.535  0.00  0.00    -0.246 OA
ATOM     40  OD1 ASP A   8     -11.810  15.606  38.327  0.00  0.00    -0.246 OA
ENDBRANCH  37  38
ENDBRANCH  16  37
ENDBRANCH  14  16
ENDBRANCH  11  12
BRANCH  11  41
ATOM     41  CB  ASP A   7     -14.329  16.838  35.901  0.00  0.00    +0.143 C 
BRANCH  41  42
ATOM     42  CG  ASP A   7     -15.454  16.170  35.130  0.00  0.00    +0.367 C 
ATOM     43  OD2 ASP A   7     -15.778  15.029  35.514  0.00  0.00    -0.246 OA
ATOM     44  OD1 ASP A   7     -16.026  16.760  34.181  0.00  0.00    -0.246 OA
ENDBRANCH  41  42
ENDBRANCH  11  41
ENDBRANCH   8  11
ENDBRANCH   5   7
ENDBRANCH   2   5
BRANCH   1  45
ATOM     45  CA  GLY A   5     -14.183  19.483  28.915  0.00  0.00    +0.176 C 
BRANCH  45  48
ATOM     46  C   THR A   4     -14.885  21.669  29.706  0.00  0.00    +0.243 C 
ATOM     47  O   THR A   4     -15.804  21.160  30.371  0.00  0.00    -0.273 OA
ATOM     48  N   GLY A   5     -14.061  20.932  28.959  0.00  0.00    -0.295 N 
ATOM     49  H   GLY A   5     -13.320  21.401  28.400  0.00  0.00    +0.150 HD
BRANCH  46  50
ATOM     50  CA  THR A   4     -14.600  23.187  29.748  0.00  0.00    +0.176 C 
BRANCH  50  53
ATOM     51  C   ASP A   3     -12.185  23.182  30.042  0.00  0.00    +0.241 C 
ATOM     52  O   ASP A   3     -12.266  22.590  31.117  0.00  0.00    -0.273 OA
ATOM     53  N   THR A   4     -13.236  23.515  29.303  0.00  0.00    -0.295 N 
ATOM     54  H   THR A   4     -13.094  24.013  28.401  0.00  0.00    +0.150 HD
BRANCH  51  55
ATOM     55  CA  ASP A   3     -10.835  23.511  29.477  0.00  0.00    +0.160 C 
BRANCH  55  57
ATOM     56  C   LEU A   2      -9.980  25.725  29.170  0.00  0.00    +0.241 C 
ATOM     57  N   ASP A   3     -10.338  24.770  30.009  0.00  0.00    -0.297 N 
ATOM     58  H   ASP A   3     -10.266  24.916  31.036  0.00  0.00    +0.150 HD
ATOM     59  O   LEU A   2     -10.160  25.663  27.939  0.00  0.00    -0.273 OA
BRANCH  56  60
ATOM     60  CA  LEU A   2      -9.215  26.862  29.798  0.00  0.00    +0.149 C 
BRANCH  60  63
ATOM     61  C   LEU A   1      -7.017  25.878  29.749  0.00  0.00    +0.238 C 
ATOM     62  O   LEU A   1      -7.291  25.107  30.675  0.00  0.00    -0.274 OA
ATOM     63  N   LEU A   2      -7.863  26.781  29.287  0.00  0.00    -0.297 N 
ATOM     64  H   LEU A   2      -7.554  27.442  28.546  0.00  0.00    +0.150 HD
BRANCH  61  65
ATOM     65  CA  LEU A   1      -5.658  25.819  29.057  0.00  0.00    +0.145 C 
BRANCH  65  66
ATOM     66  N   LEU A   1      -4.569  25.862  30.008  0.00  0.00    -0.238 NA
ATOM     67  H   LEU A   1      -4.334  24.972  30.493  0.00  0.00    +0.142 HD
ENDBRANCH  65  66
BRANCH  65  68
ATOM     68  CB  LEU A   1      -5.583  24.486  28.278  0.00  0.00    +0.026 C 
BRANCH  68  69
ATOM     69  CG  LEU A   1      -6.541  24.302  27.098  0.00  0.00    +0.002 C 
ATOM     70  CD2 LEU A   1      -6.683  22.829  26.692  0.00  0.00    +0.000 C 
ATOM     71  CD1 LEU A   1      -6.083  25.129  25.942  0.00  0.00    +0.000 C 
ENDBRANCH  68  69
ENDBRANCH  65  68
ENDBRANCH  61  65
ENDBRANCH  60  63
BRANCH  60  72
ATOM     72  CB  LEU A   2      -9.844  28.217  29.505  0.00  0.00    +0.029 C 
BRANCH  72  73
ATOM     73  CG  LEU A   2      -9.085  29.434  30.055  0.00  0.00    +0.002 C 
ATOM     74  CD2 LEU A   2      -8.731  29.290  31.546  0.00  0.00    +0.000 C 
ATOM     75  CD1 LEU A   2      -9.960  30.682  29.827  0.00  0.00    +0.000 C 
ENDBRANCH  72  73
ENDBRANCH  60  72
ENDBRANCH  56  60
ENDBRANCH  55  57
BRANCH  55  76
ATOM     76  CB  ASP A   3      -9.889  22.382  29.836  0.00  0.00    +0.143 C 
BRANCH  76  77
ATOM     77  CG  ASP A   3     -10.061  21.180  28.960  0.00  0.00    +0.367 C 
ATOM     78  OD2 ASP A   3      -9.100  20.405  28.882  0.00  0.00    -0.246 OA
ATOM     79  OD1 ASP A   3     -11.122  21.013  28.325  0.00  0.00    -0.246 OA
ENDBRANCH  76  77
ENDBRANCH  55  76
ENDBRANCH  51  55
ENDBRANCH  50  53
BRANCH  50  80
ATOM     80  CB  THR A   4     -15.626  23.965  28.931  0.00  0.00    +0.137 C 
ATOM     81  CG2 THR A   4     -15.332  25.497  29.031  0.00  0.00    +0.034 C 
BRANCH  80  82
ATOM     82  OG1 THR A   4     -15.597  23.534  27.553  0.00  0.00    -0.382 OA
ATOM     83  HG1 THR A   4     -15.810  22.568  27.506  0.00  0.00    +0.210 HD
ENDBRANCH  80  82
ENDBRANCH  50  80
ENDBRANCH  46  50
ENDBRANCH  45  48
ENDBRANCH   1  45
TORSDOF 36
REMARK  Name = ../refined-set-2016/3ttp/3ttp_pocket.pdb
REMARK  209 active torsions:
REMARK  status: ('A' for Active; 'I' for Inactive)
REMARK    1  A    between atoms: _1  and  _3
REMARK    2  A    between atoms: _3  and  _4
REMARK    3  A    between atoms: _3  and  _6
REMARK    4  A    between atoms: _6  and  _7
REMARK    5  A    between atoms: _7  and  _8
REMARK    6  A    between atoms: _8  and  _9
REMARK    7  A    between atoms: _18  and  _20
REMARK    8  A    between atoms: _20  and  _21
REMARK    9  A    between atoms: _20  and  _23
REMARK   10  A    between atoms: _23  and  _24
REMARK   11  A    between atoms: _27  and  _29
REMARK   12  A    between atoms: _29  and  _30
REMARK   13  A    between atoms: _29  and  _32
REMARK   14  A    between atoms: _32  and  _33
REMARK   15  A    between atoms: _36  and  _38
REMARK   16  A    between atoms: _38  and  _39
REMARK   17  A    between atoms: _38  and  _41
REMARK   18  A    between atoms: _41  and  _42
REMARK   19  A    between atoms: _45  and  _47
REMARK   20  A    between atoms: _47  and  _48
REMARK   21  A    between atoms: _47  and  _50
REMARK   22  A    between atoms: _50  and  _51
REMARK   23  A    between atoms: _54  and  _56
REMARK   24  A    between atoms: _56  and  _57
REMARK   25  A    between atoms: _59  and  _61
REMARK   26  A    between atoms: _61  and  _62
REMARK   27  A    between atoms: _65  and  _67
REMARK   28  A    between atoms: _67  and  _68
REMARK   29  A    between atoms: _67  and  _70
REMARK   30  A    between atoms: _70  and  _71
REMARK   31  A    between atoms: _74  and  _76
REMARK   32  A    between atoms: _76  and  _77
REMARK   33  A    between atoms: _76  and  _79
REMARK   34  A    between atoms: _79  and  _80
REMARK   35  A    between atoms: _83  and  _85
REMARK   36  A    between atoms: _85  and  _86
REMARK   37  A    between atoms: _85  and  _88
REMARK   38  A    between atoms: _88  and  _89
REMARK   39  A    between atoms: _92  and  _94
REMARK   40  A    between atoms: _94  and  _95
REMARK   41  A    between atoms: _94  and  _97
REMARK   42  A    between atoms: _97  and  _98
REMARK   43  A    between atoms: _101  and  _103
REMARK   44  A    between atoms: _103  and  _104
REMARK   45  A    between atoms: _103  and  _106
REMARK   46  A    between atoms: _106  and  _107
REMARK   47  A    between atoms: _107  and  _108
REMARK   48  A    between atoms: _110  and  _112
REMARK   49  A    between atoms: _112  and  _113
REMARK   50  A    between atoms: _112  and  _115
REMARK   51  A    between atoms: _118  and  _120
REMARK   52  A    between atoms: _120  and  _121
REMARK   53  A    between atoms: _123  and  _125
REMARK   54  A    between atoms: _125  and  _126
REMARK   55  A    between atoms: _128  and  _130
REMARK   56  A    between atoms: _130  and  _131
REMARK   57  A    between atoms: _130  and  _133
REMARK   58  A    between atoms: _133  and  _134
REMARK   59  A    between atoms: _137  and  _139
REMARK   60  A    between atoms: _139  and  _140
REMARK   61  A    between atoms: _142  and  _144
REMARK   62  A    between atoms: _144  and  _145
REMARK   63  A    between atoms: _147  and  _149
REMARK   64  A    between atoms: _149  and  _150
REMARK   65  A    between atoms: _149  and  _152
REMARK   66  A    between atoms: _152  and  _153
REMARK   67  A    between atoms: _153  and  _154
REMARK   68  A    between atoms: _156  and  _158
REMARK   69  A    between atoms: _158  and  _159
REMARK   70  A    between atoms: _158  and  _161
REMARK   71  A    between atoms: _161  and  _162
REMARK   72  A    between atoms: _165  and  _167
REMARK   73  A    between atoms: _167  and  _168
REMARK   74  A    between atoms: _167  and  _170
REMARK   75  A    between atoms: _170  and  _171
REMARK   76  A    between atoms: _175  and  _176
REMARK   77  A    between atoms: _181  and  _183
REMARK   78  A    between atoms: _183  and  _184
REMARK   79  A    between atoms: _183  and  _186
REMARK   80  A    between atoms: _186  and  _187
REMARK   81  A    between atoms: _190  and  _192
REMARK   82  A    between atoms: _192  and  _193
REMARK   83  A    between atoms: _192  and  _195
REMARK   84  A    between atoms: _195  and  _196
REMARK   85  A    between atoms: _201  and  _203
REMARK   86  A    between atoms: _203  and  _204
REMARK   87  A    between atoms: _203  and  _206
REMARK   88  A    between atoms: _206  and  _207
REMARK   89  A    between atoms: _210  and  _212
REMARK   90  A    between atoms: _212  and  _213
REMARK   91  A    between atoms: _212  and  _215
REMARK   92  A    between atoms: _215  and  _216
REMARK   93  A    between atoms: _219  and  _221
REMARK   94  A    between atoms: _221  and  _222
REMARK   95  A    between atoms: _224  and  _226
REMARK   96  A    between atoms: _226  and  _227
REMARK   97  A    between atoms: _226  and  _229
REMARK   98  A    between atoms: _229  and  _230
REMARK   99  A    between atoms: _230  and  _231
REMARK  100  A    between atoms: _231  and  _232
REMARK  101  A    between atoms: _241  and  _243
REMARK  102  A    between atoms: _243  and  _244
REMARK  103  A    between atoms: _243  and  _246
REMARK  104  A    between atoms: _246  and  _247
REMARK  105  A    between atoms: _252  and  _254
REMARK  106  A    between atoms: _254  and  _255
REMARK  107  A    between atoms: _254  and  _257
REMARK  108  A    between atoms: _257  and  _258
REMARK  109  A    between atoms: _258  and  _259
REMARK  110  A    between atoms: _259  and  _260
REMARK  111  A    between atoms: _269  and  _271
REMARK  112  A    between atoms: _271  and  _272
REMARK  113  A    between atoms: _271  and  _274
REMARK  114  A    between atoms: _274  and  _275
REMARK  115  A    between atoms: _278  and  _280
REMARK  116  A    between atoms: _280  and  _281
REMARK  117  A    between atoms: _280  and  _283
REMARK  118  A    between atoms: _283  and  _284
REMARK  119  A    between atoms: _287  and  _289
REMARK  120  A    between atoms: _289  and  _290
REMARK  121  A    between atoms: _289  and  _292
REMARK  122  A    between atoms: _292  and  _293
REMARK  123  A    between atoms: _296  and  _298
REMARK  124  A    between atoms: _298  and  _299
REMARK  125  A    between atoms: _298  and  _301
REMARK  126  A    between atoms: _301  and  _302
REMARK  127  A    between atoms: _305  and  _307
REMARK  128  A    between atoms: _307  and  _308
REMARK  129  A    between atoms: _310  and  _312
REMARK  130  A    between atoms: _312  and  _313
REMARK  131  A    between atoms: _316  and  _318
REMARK  132  A    between atoms: _318  and  _319
REMARK  133  A    between atoms: _318  and  _321
REMARK  134  A    between atoms: _321  and  _322
REMARK  135  A    between atoms: _325  and  _327
REMARK  136  A    between atoms: _327  and  _328
REMARK  137  A    between atoms: _327  and  _330
REMARK  138  A    between atoms: _330  and  _331
REMARK  139  A    between atoms: _334  and  _336
REMARK  140  A    between atoms: _336  and  _337
REMARK  141  A    between atoms: _336  and  _339
REMARK  142  A    between atoms: _339  and  _340
REMARK  143  A    between atoms: _343  and  _345
REMARK  144  A    between atoms: _345  and  _346
REMARK  145  A    between atoms: _345  and  _348
REMARK  146  A    between atoms: _348  and  _349
REMARK  147  A    between atoms: _352  and  _354
REMARK  148  A    between atoms: _354  and  _355
REMARK  149  A    between atoms: _354  and  _357
REMARK  150  A    between atoms: _357  and  _358
REMARK  151  A    between atoms: _358  and  _359
REMARK  152  A    between atoms: _361  and  _363
REMARK  153  A    between atoms: _363  and  _364
REMARK  154  A    between atoms: _363  and  _366
REMARK  155  A    between atoms: _369  and  _371
REMARK  156  A    between atoms: _371  and  _372
REMARK  157  A    between atoms: _374  and  _376
REMARK  158  A    between atoms: _376  and  _377
REMARK  159  A    between atoms: _379  and  _381
REMARK  160  A    between atoms: _381  and  _382
REMARK  161  A    between atoms: _381  and  _384
REMARK  162  A    between atoms: _384  and  _385
REMARK  163  A    between atoms: _388  and  _390
REMARK  164  A    between atoms: _390  and  _391
REMARK  165  A    between atoms: _393  and  _395
REMARK  166  A    between atoms: _395  and  _396
REMARK  167  A    between atoms: _398  and  _400
REMARK  168  A    between atoms: _400  and  _401
REMARK  169  A    between atoms: _400  and  _403
REMARK  170  A    between atoms: _403  and  _404
REMARK  171  A    between atoms: _404  and  _405
REMARK  172  A    between atoms: _407  and  _409
REMARK  173  A    between atoms: _409  and  _410
REMARK  174  A    between atoms: _409  and  _412
REMARK  175  A    between atoms: _412  and  _413
REMARK  176  A    between atoms: _417  and  _418
REMARK  177  A    between atoms: _423  and  _425
REMARK  178  A    between atoms: _425  and  _426
REMARK  179  A    between atoms: _425  and  _428
REMARK  180  A    between atoms: _428  and  _429
REMARK  181  A    between atoms: _433  and  _434
REMARK  182  A    between atoms: _439  and  _441
REMARK  183  A    between atoms: _441  and  _442
REMARK  184  A    between atoms: _441  and  _444
REMARK  185  A    between atoms: _444  and  _445
REMARK  186  A    between atoms: _448  and  _450
REMARK  187  A    between atoms: _450  and  _451
REMARK  188  A    between atoms: _450  and  _453
REMARK  189  A    between atoms: _453  and  _454
REMARK  190  A    between atoms: _459  and  _461
REMARK  191  A    between atoms: _461  and  _462
REMARK  192  A    between atoms: _461  and  _464
REMARK  193  A    between atoms: _464  and  _465
REMARK  194  A    between atoms: _468  and  _470
REMARK  195  A    between atoms: _470  and  _471
REMARK  196  A    between atoms: _470  and  _473
REMARK  197  A    between atoms: _473  and  _474
REMARK  198  A    between atoms: _477  and  _479
REMARK  199  A    between atoms: _479  and  _480
REMARK  200  A    between atoms: _482  and  _484
REMARK  201  A    between atoms: _484  and  _485
REMARK  202  A    between atoms: _484  and  _487
REMARK  203  A    between atoms: _487  and  _488
REMARK  204  A    between atoms: _488  and  _489
REMARK  205  A    between atoms: _489  and  _490
REMARK  206  A    between atoms: _499  and  _501
REMARK  207  A    between atoms: _501  and  _502
REMARK  208  A    between atoms: _501  and  _504
REMARK  209  A    between atoms: _504  and  _505
REMARK                            x       y       z     vdW  Elec       q    Type
REMARK                         _______ _______ _______ _____ _____    ______ ____
ROOT
ATOM      1  C   GLY A   3      -9.274  10.047  31.442  0.00  0.00    +0.243 C 
ATOM      2  O   GLY A   3      -9.917  11.064  31.639  0.00  0.00    -0.273 OA
ATOM      3  N   GLY A   4      -8.698   9.765  30.286  0.00  0.00    -0.295 N 
ATOM      4  H   GLY A   4      -8.184   8.869  30.160  0.00  0.00    +0.150 HD
ENDROOT
BRANCH   3   5
ATOM      5  CA  GLY A   4      -8.788  10.710  29.201  0.00  0.00    +0.176 C 
BRANCH   5   6
ATOM      6  C   GLY A   4      -9.053  10.031  27.905  0.00  0.00    +0.243 C 
ATOM      7  O   GLY A   4      -9.367   8.850  27.869  0.00  0.00    -0.273 OA
ATOM      8  N   ILE A   5      -8.899  10.783  26.831  0.00  0.00    -0.297 N 
ATOM      9  H   ILE A   5      -8.607  11.775  26.940  0.00  0.00    +0.150 HD
BRANCH   8  10
ATOM     10  CA  ILE A   5      -9.128  10.255  25.513  0.00  0.00    +0.149 C 
BRANCH  10  11
ATOM     11  C   ILE A   5      -8.373   8.925  25.307  0.00  0.00    +0.241 C 
ATOM     12  N   GLY A   6      -7.084   8.870  25.647  0.00  0.00    -0.295 N 
ATOM     13  H   GLY A   6      -6.644   9.674  26.138  0.00  0.00    +0.150 HD
ATOM     14  O   ILE A   5      -8.976   7.944  24.886  0.00  0.00    -0.273 OA
BRANCH  12  15
ATOM     15  CA  GLY A   6      -6.285   7.683  25.333  0.00  0.00    +0.176 C 
BRANCH  15  16
ATOM     16  C   GLY A   6      -5.939   6.738  26.480  0.00  0.00    +0.243 C 
ATOM     17  N   GLY A   7      -6.584   6.878  27.630  0.00  0.00    -0.296 N 
ATOM     18  H   GLY A   7      -7.341   7.585  27.724  0.00  0.00    +0.150 HD
ATOM     19  O   GLY A   6      -5.096   5.870  26.325  0.00  0.00    -0.273 OA
BRANCH  17  20
ATOM     20  CA  GLY A   7      -6.224   6.032  28.762  0.00  0.00    +0.163 C 
BRANCH  20  21
ATOM     21  C   GLY A   7      -6.242   6.734  30.106  0.00  0.00    +0.229 C 
ATOM     22  O   GLY A   7      -6.712   7.847  30.208  0.00  0.00    -0.286 OA
ENDBRANCH  20  21
ENDBRANCH  17  20
ENDBRANCH  15  16
ENDBRANCH  12  15
ENDBRANCH  10  11
BRANCH  10  23
ATOM     23  CB  ILE A   5      -8.845  11.339  24.425  0.00  0.00    +0.027 C 
ATOM     24  CG2 ILE A   5      -7.417  11.291  23.910  0.00  0.00    +0.002 C 
BRANCH  23  25
ATOM     25  CG1 ILE A   5      -9.853  11.256  23.287  0.00  0.00    +0.002 C 
ATOM     26  CD1 ILE A   5      -9.905  12.519  22.459  0.00  0.00    +0.000 C 
ENDBRANCH  23  25
ENDBRANCH  10  23
ENDBRANCH   8  10
ENDBRANCH   5   6
ENDBRANCH   3   5
BRANCH   1  27
ATOM     27  CA  GLY A   3      -9.106   9.041  32.534  0.00  0.00    +0.176 C 
BRANCH  27  30
ATOM     28  C   VAL A   2      -7.848   9.705  34.470  0.00  0.00    +0.241 C 
ATOM     29  O   VAL A   2      -6.895   9.001  34.143  0.00  0.00    -0.273 OA
ATOM     30  N   GLY A   3      -8.962   9.778  33.767  0.00  0.00    -0.295 N 
ATOM     31  H   GLY A   3      -9.745  10.373  34.105  0.00  0.00    +0.150 HD
BRANCH  28  32
ATOM     32  CA  VAL A   2      -7.828  10.525  35.750  0.00  0.00    +0.148 C 
BRANCH  32  35
ATOM     33  C   MET A   1      -7.476   9.636  37.961  0.00  0.00    +0.238 C 
ATOM     34  O   MET A   1      -8.523  10.130  38.376  0.00  0.00    -0.274 OA
ATOM     35  N   VAL A   2      -6.999   9.863  36.746  0.00  0.00    -0.297 N 
ATOM     36  H   VAL A   2      -6.032   9.568  36.504  0.00  0.00    +0.150 HD
BRANCH  33  37
ATOM     37  CA  MET A   1      -6.627   8.789  38.870  0.00  0.00    +0.146 C 
BRANCH  37  38
ATOM     38  N   MET A   1      -6.912   9.094  40.261  0.00  0.00    -0.238 NA
ATOM     39  H   MET A   1      -7.894   9.217  40.580  0.00  0.00    +0.142 HD
ENDBRANCH  37  38
BRANCH  37  40
ATOM     40  CB  MET A   1      -6.767   7.291  38.608  0.00  0.00    +0.038 C 
BRANCH  40  41
ATOM     41  CG  MET A   1      -5.508   6.583  39.064  0.00  0.00    +0.060 C 
BRANCH  41  42
ATOM     42  SD  MET A   1      -5.600   4.830  39.395  0.00  0.00    -0.139 S 
ATOM     43  CE  MET A   1      -5.236   4.209  37.766  0.00  0.00    +0.069 C 
ENDBRANCH  41  42
ENDBRANCH  40  41
ENDBRANCH  37  40
ENDBRANCH  33  37
ENDBRANCH  32  35
BRANCH  32  44
ATOM     44  CB  VAL A   2      -7.388  11.981  35.464  0.00  0.00    +0.027 C 
ATOM     45  CG2 VAL A   2      -7.585  12.838  36.683  0.00  0.00    +0.002 C 
ATOM     46  CG1 VAL A   2      -5.923  12.019  35.029  0.00  0.00    +0.002 C 
ENDBRANCH  32  44
ENDBRANCH  28  32
ENDBRANCH  27  30
ENDBRANCH   1  27
TORSDOF 20
REMARK  Name = ../refined-set-2016/3ttp/3ttp_pocket.pdb
REMARK  209 active torsions:
REMARK  status: ('A' for Active; 'I' for Inactive)
REMARK    1  A    between atoms: _1  and  _3
REMARK    2  A    between atoms: _3  and  _4
REMARK    3  A    between atoms: _3  and  _6
REMARK    4  A    between atoms: _6  and  _7
REMARK    5  A    between atoms: _7  and  _8
REMARK    6  A    between atoms: _8  and  _9
REMARK    7  A    between atoms: _18  and  _20
REMARK    8  A    between atoms: _20  and  _21
REMARK    9  A    between atoms: _20  and  _23
REMARK   10  A    between atoms: _23  and  _24
REMARK   11  A    between atoms: _27  and  _29
REMARK   12  A    between atoms: _29  and  _30
REMARK   13  A    between atoms: _29  and  _32
REMARK   14  A    between atoms: _32  and  _33
REMARK   15  A    between atoms: _36  and  _38
REMARK   16  A    between atoms: _38  and  _39
REMARK   17  A    between atoms: _38  and  _41
REMARK   18  A    between atoms: _41  and  _42
REMARK   19  A    between atoms: _45  and  _47
REMARK   20  A    between atoms: _47  and  _48
REMARK   21  A    between atoms: _47  and  _50
REMARK   22  A    between atoms: _50  and  _51
REMARK   23  A    between atoms: _54  and  _56
REMARK   24  A    between atoms: _56  and  _57
REMARK   25  A    between atoms: _59  and  _61
REMARK   26  A    between atoms: _61  and  _62
REMARK   27  A    between atoms: _65  and  _67
REMARK   28  A    between atoms: _67  and  _68
REMARK   29  A    between atoms: _67  and  _70
REMARK   30  A    between atoms: _70  and  _71
REMARK   31  A    between atoms: _74  and  _76
REMARK   32  A    between atoms: _76  and  _77
REMARK   33  A    between atoms: _76  and  _79
REMARK   34  A    between atoms: _79  and  _80
REMARK   35  A    between atoms: _83  and  _85
REMARK   36  A    between atoms: _85  and  _86
REMARK   37  A    between atoms: _85  and  _88
REMARK   38  A    between atoms: _88  and  _89
REMARK   39  A    between atoms: _92  and  _94
REMARK   40  A    between atoms: _94  and  _95
REMARK   41  A    between atoms: _94  and  _97
REMARK   42  A    between atoms: _97  and  _98
REMARK   43  A    between atoms: _101  and  _103
REMARK   44  A    between atoms: _103  and  _104
REMARK   45  A    between atoms: _103  and  _106
REMARK   46  A    between atoms: _106  and  _107
REMARK   47  A    between atoms: _107  and  _108
REMARK   48  A    between atoms: _110  and  _112
REMARK   49  A    between atoms: _112  and  _113
REMARK   50  A    between atoms: _112  and  _115
REMARK   51  A    between atoms: _118  and  _120
REMARK   52  A    between atoms: _120  and  _121
REMARK   53  A    between atoms: _123  and  _125
REMARK   54  A    between atoms: _125  and  _126
REMARK   55  A    between atoms: _128  and  _130
REMARK   56  A    between atoms: _130  and  _131
REMARK   57  A    between atoms: _130  and  _133
REMARK   58  A    between atoms: _133  and  _134
REMARK   59  A    between atoms: _137  and  _139
REMARK   60  A    between atoms: _139  and  _140
REMARK   61  A    between atoms: _142  and  _144
REMARK   62  A    between atoms: _144  and  _145
REMARK   63  A    between atoms: _147  and  _149
REMARK   64  A    between atoms: _149  and  _150
REMARK   65  A    between atoms: _149  and  _152
REMARK   66  A    between atoms: _152  and  _153
REMARK   67  A    between atoms: _153  and  _154
REMARK   68  A    between atoms: _156  and  _158
REMARK   69  A    between atoms: _158  and  _159
REMARK   70  A    between atoms: _158  and  _161
REMARK   71  A    between atoms: _161  and  _162
REMARK   72  A    between atoms: _165  and  _167
REMARK   73  A    between atoms: _167  and  _168
REMARK   74  A    between atoms: _167  and  _170
REMARK   75  A    between atoms: _170  and  _171
REMARK   76  A    between atoms: _175  and  _176
REMARK   77  A    between atoms: _181  and  _183
REMARK   78  A    between atoms: _183  and  _184
REMARK   79  A    between atoms: _183  and  _186
REMARK   80  A    between atoms: _186  and  _187
REMARK   81  A    between atoms: _190  and  _192
REMARK   82  A    between atoms: _192  and  _193
REMARK   83  A    between atoms: _192  and  _195
REMARK   84  A    between atoms: _195  and  _196
REMARK   85  A    between atoms: _201  and  _203
REMARK   86  A    between atoms: _203  and  _204
REMARK   87  A    between atoms: _203  and  _206
REMARK   88  A    between atoms: _206  and  _207
REMARK   89  A    between atoms: _210  and  _212
REMARK   90  A    between atoms: _212  and  _213
REMARK   91  A    between atoms: _212  and  _215
REMARK   92  A    between atoms: _215  and  _216
REMARK   93  A    between atoms: _219  and  _221
REMARK   94  A    between atoms: _221  and  _222
REMARK   95  A    between atoms: _224  and  _226
REMARK   96  A    between atoms: _226  and  _227
REMARK   97  A    between atoms: _226  and  _229
REMARK   98  A    between atoms: _229  and  _230
REMARK   99  A    between atoms: _230  and  _231
REMARK  100  A    between atoms: _231  and  _232
REMARK  101  A    between atoms: _241  and  _243
REMARK  102  A    between atoms: _243  and  _244
REMARK  103  A    between atoms: _243  and  _246
REMARK  104  A    between atoms: _246  and  _247
REMARK  105  A    between atoms: _252  and  _254
REMARK  106  A    between atoms: _254  and  _255
REMARK  107  A    between atoms: _254  and  _257
REMARK  108  A    between atoms: _257  and  _258
REMARK  109  A    between atoms: _258  and  _259
REMARK  110  A    between atoms: _259  and  _260
REMARK  111  A    between atoms: _269  and  _271
REMARK  112  A    between atoms: _271  and  _272
REMARK  113  A    between atoms: _271  and  _274
REMARK  114  A    between atoms: _274  and  _275
REMARK  115  A    between atoms: _278  and  _280
REMARK  116  A    between atoms: _280  and  _281
REMARK  117  A    between atoms: _280  and  _283
REMARK  118  A    between atoms: _283  and  _284
REMARK  119  A    between atoms: _287  and  _289
REMARK  120  A    between atoms: _289  and  _290
REMARK  121  A    between atoms: _289  and  _292
REMARK  122  A    between atoms: _292  and  _293
REMARK  123  A    between atoms: _296  and  _298
REMARK  124  A    between atoms: _298  and  _299
REMARK  125  A    between atoms: _298  and  _301
REMARK  126  A    between atoms: _301  and  _302
REMARK  127  A    between atoms: _305  and  _307
REMARK  128  A    between atoms: _307  and  _308
REMARK  129  A    between atoms: _310  and  _312
REMARK  130  A    between atoms: _312  and  _313
REMARK  131  A    between atoms: _316  and  _318
REMARK  132  A    between atoms: _318  and  _319
REMARK  133  A    between atoms: _318  and  _321
REMARK  134  A    between atoms: _321  and  _322
REMARK  135  A    between atoms: _325  and  _327
REMARK  136  A    between atoms: _327  and  _328
REMARK  137  A    between atoms: _327  and  _330
REMARK  138  A    between atoms: _330  and  _331
REMARK  139  A    between atoms: _334  and  _336
REMARK  140  A    between atoms: _336  and  _337
REMARK  141  A    between atoms: _336  and  _339
REMARK  142  A    between atoms: _339  and  _340
REMARK  143  A    between atoms: _343  and  _345
REMARK  144  A    between atoms: _345  and  _346
REMARK  145  A    between atoms: _345  and  _348
REMARK  146  A    between atoms: _348  and  _349
REMARK  147  A    between atoms: _352  and  _354
REMARK  148  A    between atoms: _354  and  _355
REMARK  149  A    between atoms: _354  and  _357
REMARK  150  A    between atoms: _357  and  _358
REMARK  151  A    between atoms: _358  and  _359
REMARK  152  A    between atoms: _361  and  _363
REMARK  153  A    between atoms: _363  and  _364
REMARK  154  A    between atoms: _363  and  _366
REMARK  155  A    between atoms: _369  and  _371
REMARK  156  A    between atoms: _371  and  _372
REMARK  157  A    between atoms: _374  and  _376
REMARK  158  A    between atoms: _376  and  _377
REMARK  159  A    between atoms: _379  and  _381
REMARK  160  A    between atoms: _381  and  _382
REMARK  161  A    between atoms: _381  and  _384
REMARK  162  A    between atoms: _384  and  _385
REMARK  163  A    between atoms: _388  and  _390
REMARK  164  A    between atoms: _390  and  _391
REMARK  165  A    between atoms: _393  and  _395
REMARK  166  A    between atoms: _395  and  _396
REMARK  167  A    between atoms: _398  and  _400
REMARK  168  A    between atoms: _400  and  _401
REMARK  169  A    between atoms: _400  and  _403
REMARK  170  A    between atoms: _403  and  _404
REMARK  171  A    between atoms: _404  and  _405
REMARK  172  A    between atoms: _407  and  _409
REMARK  173  A    between atoms: _409  and  _410
REMARK  174  A    between atoms: _409  and  _412
REMARK  175  A    between atoms: _412  and  _413
REMARK  176  A    between atoms: _417  and  _418
REMARK  177  A    between atoms: _423  and  _425
REMARK  178  A    between atoms: _425  and  _426
REMARK  179  A    between atoms: _425  and  _428
REMARK  180  A    between atoms: _428  and  _429
REMARK  181  A    between atoms: _433  and  _434
REMARK  182  A    between atoms: _439  and  _441
REMARK  183  A    between atoms: _441  and  _442
REMARK  184  A    between atoms: _441  and  _444
REMARK  185  A    between atoms: _444  and  _445
REMARK  186  A    between atoms: _448  and  _450
REMARK  187  A    between atoms: _450  and  _451
REMARK  188  A    between atoms: _450  and  _453
REMARK  189  A    between atoms: _453  and  _454
REMARK  190  A    between atoms: _459  and  _461
REMARK  191  A    between atoms: _461  and  _462
REMARK  192  A    between atoms: _461  and  _464
REMARK  193  A    between atoms: _464  and  _465
REMARK  194  A    between atoms: _468  and  _470
REMARK  195  A    between atoms: _470  and  _471
REMARK  196  A    between atoms: _470  and  _473
REMARK  197  A    between atoms: _473  and  _474
REMARK  198  A    between atoms: _477  and  _479
REMARK  199  A    between atoms: _479  and  _480
REMARK  200  A    between atoms: _482  and  _484
REMARK  201  A    between atoms: _484  and  _485
REMARK  202  A    between atoms: _484  and  _487
REMARK  203  A    between atoms: _487  and  _488
REMARK  204  A    between atoms: _488  and  _489
REMARK  205  A    between atoms: _489  and  _490
REMARK  206  A    between atoms: _499  and  _501
REMARK  207  A    between atoms: _501  and  _502
REMARK  208  A    between atoms: _501  and  _504
REMARK  209  A    between atoms: _504  and  _505
REMARK                            x       y       z     vdW  Elec       q    Type
REMARK                         _______ _______ _______ _____ _____    ______ ____
ROOT
ATOM      1  CA  MET A   1      -2.946   7.964  34.687  0.00  0.00    +0.134 C 
ENDROOT
BRANCH   1   2
ATOM      2  N   MET A   1      -4.227   7.733  33.989  0.00  0.00    -0.239 NA
ATOM      3  H   MET A   1      -5.077   8.234  34.317  0.00  0.00    +0.142 HD
ENDBRANCH   1   2
BRANCH   1   4
ATOM      4  C   MET A   1      -3.121   8.259  36.185  0.00  0.00    +0.224 C 
ATOM      5  O   MET A   1      -4.133   8.830  36.600  0.00  0.00    -0.287 OA
ENDBRANCH   1   4
BRANCH   1   6
ATOM      6  CB  MET A   1      -2.154   9.091  34.031  0.00  0.00    +0.037 C 
BRANCH   6   7
ATOM      7  CG  MET A   1      -2.775  10.465  34.235  0.00  0.00    +0.059 C 
BRANCH   7   8
ATOM      8  SD  MET A   1      -1.724  11.726  33.514  0.00  0.00    -0.139 S 
ATOM      9  CE  MET A   1      -2.641  13.173  33.974  0.00  0.00    +0.069 C 
ENDBRANCH   7   8
ENDBRANCH   6   7
ENDBRANCH   1   6
TORSDOF 5
REMARK  Name = ../refined-set-2016/3ttp/3ttp_pocket.pdb
REMARK  209 active torsions:
REMARK  status: ('A' for Active; 'I' for Inactive)
REMARK    1  A    between atoms: _1  and  _3
REMARK    2  A    between atoms: _3  and  _4
REMARK    3  A    between atoms: _3  and  _6
REMARK    4  A    between atoms: _6  and  _7
REMARK    5  A    between atoms: _7  and  _8
REMARK    6  A    between atoms: _8  and  _9
REMARK    7  A    between atoms: _18  and  _20
REMARK    8  A    between atoms: _20  and  _21
REMARK    9  A    between atoms: _20  and  _23
REMARK   10  A    between atoms: _23  and  _24
REMARK   11  A    between atoms: _27  and  _29
REMARK   12  A    between atoms: _29  and  _30
REMARK   13  A    between atoms: _29  and  _32
REMARK   14  A    between atoms: _32  and  _33
REMARK   15  A    between atoms: _36  and  _38
REMARK   16  A    between atoms: _38  and  _39
REMARK   17  A    between atoms: _38  and  _41
REMARK   18  A    between atoms: _41  and  _42
REMARK   19  A    between atoms: _45  and  _47
REMARK   20  A    between atoms: _47  and  _48
REMARK   21  A    between atoms: _47  and  _50
REMARK   22  A    between atoms: _50  and  _51
REMARK   23  A    between atoms: _54  and  _56
REMARK   24  A    between atoms: _56  and  _57
REMARK   25  A    between atoms: _59  and  _61
REMARK   26  A    between atoms: _61  and  _62
REMARK   27  A    between atoms: _65  and  _67
REMARK   28  A    between atoms: _67  and  _68
REMARK   29  A    between atoms: _67  and  _70
REMARK   30  A    between atoms: _70  and  _71
REMARK   31  A    between atoms: _74  and  _76
REMARK   32  A    between atoms: _76  and  _77
REMARK   33  A    between atoms: _76  and  _79
REMARK   34  A    between atoms: _79  and  _80
REMARK   35  A    between atoms: _83  and  _85
REMARK   36  A    between atoms: _85  and  _86
REMARK   37  A    between atoms: _85  and  _88
REMARK   38  A    between atoms: _88  and  _89
REMARK   39  A    between atoms: _92  and  _94
REMARK   40  A    between atoms: _94  and  _95
REMARK   41  A    between atoms: _94  and  _97
REMARK   42  A    between atoms: _97  and  _98
REMARK   43  A    between atoms: _101  and  _103
REMARK   44  A    between atoms: _103  and  _104
REMARK   45  A    between atoms: _103  and  _106
REMARK   46  A    between atoms: _106  and  _107
REMARK   47  A    between atoms: _107  and  _108
REMARK   48  A    between atoms: _110  and  _112
REMARK   49  A    between atoms: _112  and  _113
REMARK   50  A    between atoms: _112  and  _115
REMARK   51  A    between atoms: _118  and  _120
REMARK   52  A    between atoms: _120  and  _121
REMARK   53  A    between atoms: _123  and  _125
REMARK   54  A    between atoms: _125  and  _126
REMARK   55  A    between atoms: _128  and  _130
REMARK   56  A    between atoms: _130  and  _131
REMARK   57  A    between atoms: _130  and  _133
REMARK   58  A    between atoms: _133  and  _134
REMARK   59  A    between atoms: _137  and  _139
REMARK   60  A    between atoms: _139  and  _140
REMARK   61  A    between atoms: _142  and  _144
REMARK   62  A    between atoms: _144  and  _145
REMARK   63  A    between atoms: _147  and  _149
REMARK   64  A    between atoms: _149  and  _150
REMARK   65  A    between atoms: _149  and  _152
REMARK   66  A    between atoms: _152  and  _153
REMARK   67  A    between atoms: _153  and  _154
REMARK   68  A    between atoms: _156  and  _158
REMARK   69  A    between atoms: _158  and  _159
REMARK   70  A    between atoms: _158  and  _161
REMARK   71  A    between atoms: _161  and  _162
REMARK   72  A    between atoms: _165  and  _167
REMARK   73  A    between atoms: _167  and  _168
REMARK   74  A    between atoms: _167  and  _170
REMARK   75  A    between atoms: _170  and  _171
REMARK   76  A    between atoms: _175  and  _176
REMARK   77  A    between atoms: _181  and  _183
REMARK   78  A    between atoms: _183  and  _184
REMARK   79  A    between atoms: _183  and  _186
REMARK   80  A    between atoms: _186  and  _187
REMARK   81  A    between atoms: _190  and  _192
REMARK   82  A    between atoms: _192  and  _193
REMARK   83  A    between atoms: _192  and  _195
REMARK   84  A    between atoms: _195  and  _196
REMARK   85  A    between atoms: _201  and  _203
REMARK   86  A    between atoms: _203  and  _204
REMARK   87  A    between atoms: _203  and  _206
REMARK   88  A    between atoms: _206  and  _207
REMARK   89  A    between atoms: _210  and  _212
REMARK   90  A    between atoms: _212  and  _213
REMARK   91  A    between atoms: _212  and  _215
REMARK   92  A    between atoms: _215  and  _216
REMARK   93  A    between atoms: _219  and  _221
REMARK   94  A    between atoms: _221  and  _222
REMARK   95  A    between atoms: _224  and  _226
REMARK   96  A    between atoms: _226  and  _227
REMARK   97  A    between atoms: _226  and  _229
REMARK   98  A    between atoms: _229  and  _230
REMARK   99  A    between atoms: _230  and  _231
REMARK  100  A    between atoms: _231  and  _232
REMARK  101  A    between atoms: _241  and  _243
REMARK  102  A    between atoms: _243  and  _244
REMARK  103  A    between atoms: _243  and  _246
REMARK  104  A    between atoms: _246  and  _247
REMARK  105  A    between atoms: _252  and  _254
REMARK  106  A    between atoms: _254  and  _255
REMARK  107  A    between atoms: _254  and  _257
REMARK  108  A    between atoms: _257  and  _258
REMARK  109  A    between atoms: _258  and  _259
REMARK  110  A    between atoms: _259  and  _260
REMARK  111  A    between atoms: _269  and  _271
REMARK  112  A    between atoms: _271  and  _272
REMARK  113  A    between atoms: _271  and  _274
REMARK  114  A    between atoms: _274  and  _275
REMARK  115  A    between atoms: _278  and  _280
REMARK  116  A    between atoms: _280  and  _281
REMARK  117  A    between atoms: _280  and  _283
REMARK  118  A    between atoms: _283  and  _284
REMARK  119  A    between atoms: _287  and  _289
REMARK  120  A    between atoms: _289  and  _290
REMARK  121  A    between atoms: _289  and  _292
REMARK  122  A    between atoms: _292  and  _293
REMARK  123  A    between atoms: _296  and  _298
REMARK  124  A    between atoms: _298  and  _299
REMARK  125  A    between atoms: _298  and  _301
REMARK  126  A    between atoms: _301  and  _302
REMARK  127  A    between atoms: _305  and  _307
REMARK  128  A    between atoms: _307  and  _308
REMARK  129  A    between atoms: _310  and  _312
REMARK  130  A    between atoms: _312  and  _313
REMARK  131  A    between atoms: _316  and  _318
REMARK  132  A    between atoms: _318  and  _319
REMARK  133  A    between atoms: _318  and  _321
REMARK  134  A    between atoms: _321  and  _322
REMARK  135  A    between atoms: _325  and  _327
REMARK  136  A    between atoms: _327  and  _328
REMARK  137  A    between atoms: _327  and  _330
REMARK  138  A    between atoms: _330  and  _331
REMARK  139  A    between atoms: _334  and  _336
REMARK  140  A    between atoms: _336  and  _337
REMARK  141  A    between atoms: _336  and  _339
REMARK  142  A    between atoms: _339  and  _340
REMARK  143  A    between atoms: _343  and  _345
REMARK  144  A    between atoms: _345  and  _346
REMARK  145  A    between atoms: _345  and  _348
REMARK  146  A    between atoms: _348  and  _349
REMARK  147  A    between atoms: _352  and  _354
REMARK  148  A    between atoms: _354  and  _355
REMARK  149  A    between atoms: _354  and  _357
REMARK  150  A    between atoms: _357  and  _358
REMARK  151  A    between atoms: _358  and  _359
REMARK  152  A    between atoms: _361  and  _363
REMARK  153  A    between atoms: _363  and  _364
REMARK  154  A    between atoms: _363  and  _366
REMARK  155  A    between atoms: _369  and  _371
REMARK  156  A    between atoms: _371  and  _372
REMARK  157  A    between atoms: _374  and  _376
REMARK  158  A    between atoms: _376  and  _377
REMARK  159  A    between atoms: _379  and  _381
REMARK  160  A    between atoms: _381  and  _382
REMARK  161  A    between atoms: _381  and  _384
REMARK  162  A    between atoms: _384  and  _385
REMARK  163  A    between atoms: _388  and  _390
REMARK  164  A    between atoms: _390  and  _391
REMARK  165  A    between atoms: _393  and  _395
REMARK  166  A    between atoms: _395  and  _396
REMARK  167  A    between atoms: _398  and  _400
REMARK  168  A    between atoms: _400  and  _401
REMARK  169  A    between atoms: _400  and  _403
REMARK  170  A    between atoms: _403  and  _404
REMARK  171  A    between atoms: _404  and  _405
REMARK  172  A    between atoms: _407  and  _409
REMARK  173  A    between atoms: _409  and  _410
REMARK  174  A    between atoms: _409  and  _412
REMARK  175  A    between atoms: _412  and  _413
REMARK  176  A    between atoms: _417  and  _418
REMARK  177  A    between atoms: _423  and  _425
REMARK  178  A    between atoms: _425  and  _426
REMARK  179  A    between atoms: _425  and  _428
REMARK  180  A    between atoms: _428  and  _429
REMARK  181  A    between atoms: _433  and  _434
REMARK  182  A    between atoms: _439  and  _441
REMARK  183  A    between atoms: _441  and  _442
REMARK  184  A    between atoms: _441  and  _444
REMARK  185  A    between atoms: _444  and  _445
REMARK  186  A    between atoms: _448  and  _450
REMARK  187  A    between atoms: _450  and  _451
REMARK  188  A    between atoms: _450  and  _453
REMARK  189  A    between atoms: _453  and  _454
REMARK  190  A    between atoms: _459  and  _461
REMARK  191  A    between atoms: _461  and  _462
REMARK  192  A    between atoms: _461  and  _464
REMARK  193  A    between atoms: _464  and  _465
REMARK  194  A    between atoms: _468  and  _470
REMARK  195  A    between atoms: _470  and  _471
REMARK  196  A    between atoms: _470  and  _473
REMARK  197  A    between atoms: _473  and  _474
REMARK  198  A    between atoms: _477  and  _479
REMARK  199  A    between atoms: _479  and  _480
REMARK  200  A    between atoms: _482  and  _484
REMARK  201  A    between atoms: _484  and  _485
REMARK  202  A    between atoms: _484  and  _487
REMARK  203  A    between atoms: _487  and  _488
REMARK  204  A    between atoms: _488  and  _489
REMARK  205  A    between atoms: _489  and  _490
REMARK  206  A    between atoms: _499  and  _501
REMARK  207  A    between atoms: _501  and  _502
REMARK  208  A    between atoms: _501  and  _504
REMARK  209  A    between atoms: _504  and  _505
REMARK                            x       y       z     vdW  Elec       q    Type
REMARK                         _______ _______ _______ _____ _____    ______ ____
ROOT
ATOM      1  CA  LEU A   1      -4.094  17.328  40.430  0.00  0.00    +0.133 C 
ENDROOT
BRANCH   1   2
ATOM      2  N   LEU A   1      -4.712  18.585  40.788  0.00  0.00    -0.239 NA
ATOM      3  H   LEU A   1      -5.308  19.073  40.089  0.00  0.00    +0.142 HD
ENDBRANCH   1   2
BRANCH   1   4
ATOM      4  C   LEU A   1      -2.728  17.574  39.785  0.00  0.00    +0.224 C 
ATOM      5  O   LEU A   1      -2.576  18.426  38.948  0.00  0.00    -0.287 OA
ENDBRANCH   1   4
BRANCH   1   6
ATOM      6  CB  LEU A   1      -5.026  16.528  39.498  0.00  0.00    +0.025 C 
BRANCH   6   7
ATOM      7  CG  LEU A   1      -6.452  16.278  40.024  0.00  0.00    +0.002 C 
ATOM      8  CD2 LEU A   1      -6.465  15.304  41.207  0.00  0.00    +0.000 C 
ATOM      9  CD1 LEU A   1      -7.335  15.731  38.942  0.00  0.00    +0.000 C 
ENDBRANCH   6   7
ENDBRANCH   1   6
TORSDOF 4
REMARK  Name = ../refined-set-2016/3ttp/3ttp_pocket.pdb
REMARK  209 active torsions:
REMARK  status: ('A' for Active; 'I' for Inactive)
REMARK    1  A    between atoms: _1  and  _3
REMARK    2  A    between atoms: _3  and  _4
REMARK    3  A    between atoms: _3  and  _6
REMARK    4  A    between atoms: _6  and  _7
REMARK    5  A    between atoms: _7  and  _8
REMARK    6  A    between atoms: _8  and  _9
REMARK    7  A    between atoms: _18  and  _20
REMARK    8  A    between atoms: _20  and  _21
REMARK    9  A    between atoms: _20  and  _23
REMARK   10  A    between atoms: _23  and  _24
REMARK   11  A    between atoms: _27  and  _29
REMARK   12  A    between atoms: _29  and  _30
REMARK   13  A    between atoms: _29  and  _32
REMARK   14  A    between atoms: _32  and  _33
REMARK   15  A    between atoms: _36  and  _38
REMARK   16  A    between atoms: _38  and  _39
REMARK   17  A    between atoms: _38  and  _41
REMARK   18  A    between atoms: _41  and  _42
REMARK   19  A    between atoms: _45  and  _47
REMARK   20  A    between atoms: _47  and  _48
REMARK   21  A    between atoms: _47  and  _50
REMARK   22  A    between atoms: _50  and  _51
REMARK   23  A    between atoms: _54  and  _56
REMARK   24  A    between atoms: _56  and  _57
REMARK   25  A    between atoms: _59  and  _61
REMARK   26  A    between atoms: _61  and  _62
REMARK   27  A    between atoms: _65  and  _67
REMARK   28  A    between atoms: _67  and  _68
REMARK   29  A    between atoms: _67  and  _70
REMARK   30  A    between atoms: _70  and  _71
REMARK   31  A    between atoms: _74  and  _76
REMARK   32  A    between atoms: _76  and  _77
REMARK   33  A    between atoms: _76  and  _79
REMARK   34  A    between atoms: _79  and  _80
REMARK   35  A    between atoms: _83  and  _85
REMARK   36  A    between atoms: _85  and  _86
REMARK   37  A    between atoms: _85  and  _88
REMARK   38  A    between atoms: _88  and  _89
REMARK   39  A    between atoms: _92  and  _94
REMARK   40  A    between atoms: _94  and  _95
REMARK   41  A    between atoms: _94  and  _97
REMARK   42  A    between atoms: _97  and  _98
REMARK   43  A    between atoms: _101  and  _103
REMARK   44  A    between atoms: _103  and  _104
REMARK   45  A    between atoms: _103  and  _106
REMARK   46  A    between atoms: _106  and  _107
REMARK   47  A    between atoms: _107  and  _108
REMARK   48  A    between atoms: _110  and  _112
REMARK   49  A    between atoms: _112  and  _113
REMARK   50  A    between atoms: _112  and  _115
REMARK   51  A    between atoms: _118  and  _120
REMARK   52  A    between atoms: _120  and  _121
REMARK   53  A    between atoms: _123  and  _125
REMARK   54  A    between atoms: _125  and  _126
REMARK   55  A    between atoms: _128  and  _130
REMARK   56  A    between atoms: _130  and  _131
REMARK   57  A    between atoms: _130  and  _133
REMARK   58  A    between atoms: _133  and  _134
REMARK   59  A    between atoms: _137  and  _139
REMARK   60  A    between atoms: _139  and  _140
REMARK   61  A    between atoms: _142  and  _144
REMARK   62  A    between atoms: _144  and  _145
REMARK   63  A    between atoms: _147  and  _149
REMARK   64  A    between atoms: _149  and  _150
REMARK   65  A    between atoms: _149  and  _152
REMARK   66  A    between atoms: _152  and  _153
REMARK   67  A    between atoms: _153  and  _154
REMARK   68  A    between atoms: _156  and  _158
REMARK   69  A    between atoms: _158  and  _159
REMARK   70  A    between atoms: _158  and  _161
REMARK   71  A    between atoms: _161  and  _162
REMARK   72  A    between atoms: _165  and  _167
REMARK   73  A    between atoms: _167  and  _168
REMARK   74  A    between atoms: _167  and  _170
REMARK   75  A    between atoms: _170  and  _171
REMARK   76  A    between atoms: _175  and  _176
REMARK   77  A    between atoms: _181  and  _183
REMARK   78  A    between atoms: _183  and  _184
REMARK   79  A    between atoms: _183  and  _186
REMARK   80  A    between atoms: _186  and  _187
REMARK   81  A    between atoms: _190  and  _192
REMARK   82  A    between atoms: _192  and  _193
REMARK   83  A    between atoms: _192  and  _195
REMARK   84  A    between atoms: _195  and  _196
REMARK   85  A    between atoms: _201  and  _203
REMARK   86  A    between atoms: _203  and  _204
REMARK   87  A    between atoms: _203  and  _206
REMARK   88  A    between atoms: _206  and  _207
REMARK   89  A    between atoms: _210  and  _212
REMARK   90  A    between atoms: _212  and  _213
REMARK   91  A    between atoms: _212  and  _215
REMARK   92  A    between atoms: _215  and  _216
REMARK   93  A    between atoms: _219  and  _221
REMARK   94  A    between atoms: _221  and  _222
REMARK   95  A    between atoms: _224  and  _226
REMARK   96  A    between atoms: _226  and  _227
REMARK   97  A    between atoms: _226  and  _229
REMARK   98  A    between atoms: _229  and  _230
REMARK   99  A    between atoms: _230  and  _231
REMARK  100  A    between atoms: _231  and  _232
REMARK  101  A    between atoms: _241  and  _243
REMARK  102  A    between atoms: _243  and  _244
REMARK  103  A    between atoms: _243  and  _246
REMARK  104  A    between atoms: _246  and  _247
REMARK  105  A    between atoms: _252  and  _254
REMARK  106  A    between atoms: _254  and  _255
REMARK  107  A    between atoms: _254  and  _257
REMARK  108  A    between atoms: _257  and  _258
REMARK  109  A    between atoms: _258  and  _259
REMARK  110  A    between atoms: _259  and  _260
REMARK  111  A    between atoms: _269  and  _271
REMARK  112  A    between atoms: _271  and  _272
REMARK  113  A    between atoms: _271  and  _274
REMARK  114  A    between atoms: _274  and  _275
REMARK  115  A    between atoms: _278  and  _280
REMARK  116  A    between atoms: _280  and  _281
REMARK  117  A    between atoms: _280  and  _283
REMARK  118  A    between atoms: _283  and  _284
REMARK  119  A    between atoms: _287  and  _289
REMARK  120  A    between atoms: _289  and  _290
REMARK  121  A    between atoms: _289  and  _292
REMARK  122  A    between atoms: _292  and  _293
REMARK  123  A    between atoms: _296  and  _298
REMARK  124  A    between atoms: _298  and  _299
REMARK  125  A    between atoms: _298  and  _301
REMARK  126  A    between atoms: _301  and  _302
REMARK  127  A    between atoms: _305  and  _307
REMARK  128  A    between atoms: _307  and  _308
REMARK  129  A    between atoms: _310  and  _312
REMARK  130  A    between atoms: _312  and  _313
REMARK  131  A    between atoms: _316  and  _318
REMARK  132  A    between atoms: _318  and  _319
REMARK  133  A    between atoms: _318  and  _321
REMARK  134  A    between atoms: _321  and  _322
REMARK  135  A    between atoms: _325  and  _327
REMARK  136  A    between atoms: _327  and  _328
REMARK  137  A    between atoms: _327  and  _330
REMARK  138  A    between atoms: _330  and  _331
REMARK  139  A    between atoms: _334  and  _336
REMARK  140  A    between atoms: _336  and  _337
REMARK  141  A    between atoms: _336  and  _339
REMARK  142  A    between atoms: _339  and  _340
REMARK  143  A    between atoms: _343  and  _345
REMARK  144  A    between atoms: _345  and  _346
REMARK  145  A    between atoms: _345  and  _348
REMARK  146  A    between atoms: _348  and  _349
REMARK  147  A    between atoms: _352  and  _354
REMARK  148  A    between atoms: _354  and  _355
REMARK  149  A    between atoms: _354  and  _357
REMARK  150  A    between atoms: _357  and  _358
REMARK  151  A    between atoms: _358  and  _359
REMARK  152  A    between atoms: _361  and  _363
REMARK  153  A    between atoms: _363  and  _364
REMARK  154  A    between atoms: _363  and  _366
REMARK  155  A    between atoms: _369  and  _371
REMARK  156  A    between atoms: _371  and  _372
REMARK  157  A    between atoms: _374  and  _376
REMARK  158  A    between atoms: _376  and  _377
REMARK  159  A    between atoms: _379  and  _381
REMARK  160  A    between atoms: _381  and  _382
REMARK  161  A    between atoms: _381  and  _384
REMARK  162  A    between atoms: _384  and  _385
REMARK  163  A    between atoms: _388  and  _390
REMARK  164  A    between atoms: _390  and  _391
REMARK  165  A    between atoms: _393  and  _395
REMARK  166  A    between atoms: _395  and  _396
REMARK  167  A    between atoms: _398  and  _400
REMARK  168  A    between atoms: _400  and  _401
REMARK  169  A    between atoms: _400  and  _403
REMARK  170  A    between atoms: _403  and  _404
REMARK  171  A    between atoms: _404  and  _405
REMARK  172  A    between atoms: _407  and  _409
REMARK  173  A    between atoms: _409  and  _410
REMARK  174  A    between atoms: _409  and  _412
REMARK  175  A    between atoms: _412  and  _413
REMARK  176  A    between atoms: _417  and  _418
REMARK  177  A    between atoms: _423  and  _425
REMARK  178  A    between atoms: _425  and  _426
REMARK  179  A    between atoms: _425  and  _428
REMARK  180  A    between atoms: _428  and  _429
REMARK  181  A    between atoms: _433  and  _434
REMARK  182  A    between atoms: _439  and  _441
REMARK  183  A    between atoms: _441  and  _442
REMARK  184  A    between atoms: _441  and  _444
REMARK  185  A    between atoms: _444  and  _445
REMARK  186  A    between atoms: _448  and  _450
REMARK  187  A    between atoms: _450  and  _451
REMARK  188  A    between atoms: _450  and  _453
REMARK  189  A    between atoms: _453  and  _454
REMARK  190  A    between atoms: _459  and  _461
REMARK  191  A    between atoms: _461  and  _462
REMARK  192  A    between atoms: _461  and  _464
REMARK  193  A    between atoms: _464  and  _465
REMARK  194  A    between atoms: _468  and  _470
REMARK  195  A    between atoms: _470  and  _471
REMARK  196  A    between atoms: _470  and  _473
REMARK  197  A    between atoms: _473  and  _474
REMARK  198  A    between atoms: _477  and  _479
REMARK  199  A    between atoms: _479  and  _480
REMARK  200  A    between atoms: _482  and  _484
REMARK  201  A    between atoms: _484  and  _485
REMARK  202  A    between atoms: _484  and  _487
REMARK  203  A    between atoms: _487  and  _488
REMARK  204  A    between atoms: _488  and  _489
REMARK  205  A    between atoms: _489  and  _490
REMARK  206  A    between atoms: _499  and  _501
REMARK  207  A    between atoms: _501  and  _502
REMARK  208  A    between atoms: _501  and  _504
REMARK  209  A    between atoms: _504  and  _505
REMARK                            x       y       z     vdW  Elec       q    Type
REMARK                         _______ _______ _______ _____ _____    ______ ____
ROOT
ATOM      1  CA  ILE A   6      -5.511  22.366  32.184  0.00  0.00    +0.149 C 
ENDROOT
BRANCH   1   3
ATOM      2  C   ASN A   5      -3.180  22.527  31.642  0.00  0.00    +0.241 C 
ATOM      3  N   ILE A   6      -4.122  22.050  32.450  0.00  0.00    -0.297 N 
ATOM      4  H   ILE A   6      -3.865  21.456  33.264  0.00  0.00    +0.150 HD
ATOM      5  O   ASN A   5      -3.437  23.193  30.632  0.00  0.00    -0.273 OA
BRANCH   2   6
ATOM      6  CA  ASN A   5      -1.748  22.162  31.987  0.00  0.00    +0.158 C 
BRANCH   6   9
ATOM      7  C   LEU A   4      -1.148  20.616  30.233  0.00  0.00    +0.241 C 
ATOM      8  O   LEU A   4      -1.653  19.672  30.798  0.00  0.00    -0.273 OA
ATOM      9  N   ASN A   5      -1.058  21.820  30.783  0.00  0.00    -0.297 N 
ATOM     10  H   ASN A   5      -0.465  22.540  30.322  0.00  0.00    +0.150 HD
BRANCH   7  11
ATOM     11  CA  LEU A   4      -0.565  20.432  28.840  0.00  0.00    +0.149 C 
BRANCH  11  13
ATOM     12  C   PRO A   3       0.667  18.393  28.072  0.00  0.00    +0.241 C 
ATOM     13  N   LEU A   4      -0.358  18.989  28.692  0.00  0.00    -0.297 N 
ATOM     14  H   LEU A   4      -1.079  18.367  29.110  0.00  0.00    +0.150 HD
ATOM     15  O   PRO A   3       1.603  18.992  27.557  0.00  0.00    -0.273 OA
BRANCH  12  22
ATOM     16  C   THR A   2       0.272  16.130  30.328  0.00  0.00    +0.246 C 
ATOM     17  O   THR A   2       1.420  16.519  30.621  0.00  0.00    -0.273 OA
ATOM     18  N   PRO A   3      -0.189  16.195  29.062  0.00  0.00    -0.272 N 
ATOM     19  CD  PRO A   3      -1.414  15.614  28.498  0.00  0.00    +0.094 C 
ATOM     20  CG  PRO A   3      -0.968  15.279  27.125  0.00  0.00    +0.024 C 
ATOM     21  CB  PRO A   3      -0.086  16.417  26.715  0.00  0.00    +0.031 C 
ATOM     22  CA  PRO A   3       0.615  16.851  28.005  0.00  0.00    +0.152 C 
BRANCH  16  23
ATOM     23  CA  THR A   2      -0.637  15.478  31.419  0.00  0.00    +0.176 C 
BRANCH  23  25
ATOM     24  C   PRO A   1       1.034  13.876  32.320  0.00  0.00    +0.239 C 
ATOM     25  N   THR A   2       0.171  14.871  32.502  0.00  0.00    -0.295 N 
ATOM     26  H   THR A   2       0.056  15.247  33.465  0.00  0.00    +0.150 HD
ATOM     27  O   PRO A   1       1.127  13.262  31.259  0.00  0.00    -0.274 OA
BRANCH  24  32
ATOM     28  N   PRO A   1       1.398  13.367  34.836  0.00  0.00    -0.210 NA
ATOM     29  CD  PRO A   1       1.397  11.964  35.298  0.00  0.00    +0.089 C 
ATOM     30  CG  PRO A   1       1.909  11.198  34.117  0.00  0.00    +0.021 C 
ATOM     31  CB  PRO A   1       2.696  12.191  33.269  0.00  0.00    +0.028 C 
ATOM     32  CA  PRO A   1       1.976  13.522  33.492  0.00  0.00    +0.149 C 
ENDBRANCH  24  32
ENDBRANCH  23  25
BRANCH  23  33
ATOM     33  CB  THR A   2      -1.680  16.509  32.027  0.00  0.00    +0.137 C 
ATOM     34  CG2 THR A   2      -0.996  17.694  32.686  0.00  0.00    +0.034 C 
BRANCH  33  35
ATOM     35  OG1 THR A   2      -2.573  17.017  31.019  0.00  0.00    -0.382 OA
ATOM     36  HG1 THR A   2      -2.049  17.479  30.318  0.00  0.00    +0.210 HD
ENDBRANCH  33  35
ENDBRANCH  23  33
ENDBRANCH  16  23
ENDBRANCH  12  22
ENDBRANCH  11  13
BRANCH  11  37
ATOM     37  CB  LEU A   4      -1.601  20.935  27.816  0.00  0.00    +0.029 C 
BRANCH  37  38
ATOM     38  CG  LEU A   4      -1.106  21.247  26.394  0.00  0.00    +0.002 C 
ATOM     39  CD2 LEU A   4      -0.257  22.537  26.300  0.00  0.00    +0.000 C 
ATOM     40  CD1 LEU A   4      -2.268  21.301  25.418  0.00  0.00    +0.000 C 
ENDBRANCH  37  38
ENDBRANCH  11  37
ENDBRANCH   7  11
ENDBRANCH   6   9
BRANCH   6  41
ATOM     41  CB  ASN A   5      -1.047  23.323  32.694  0.00  0.00    +0.114 C 
BRANCH  41  42
ATOM     42  CG  ASN A   5       0.384  22.982  33.095  0.00  0.00    +0.222 C 
ATOM     43  OD1 ASN A   5       0.725  21.807  33.334  0.00  0.00    -0.275 OA
ATOM     44  ND2 ASN A   5       1.237  24.008  33.155  0.00  0.00    -0.329 N 
ATOM     45 HD21 ASN A   5       2.232  23.843  33.410  0.00  0.00    +0.145 HD
ATOM     46 HD22 ASN A   5       0.906  24.972  32.947  0.00  0.00    +0.145 HD
ENDBRANCH  41  42
ENDBRANCH   6  41
ENDBRANCH   2   6
ENDBRANCH   1   3
BRANCH   1  47
ATOM     47  C   ILE A   6      -6.230  22.910  33.386  0.00  0.00    +0.241 C 
ATOM     48  O   ILE A   6      -6.063  22.436  34.514  0.00  0.00    -0.273 OA
ATOM     49  N   ILE A   7      -7.026  23.942  33.109  0.00  0.00    -0.297 N 
ATOM     50  H   ILE A   7      -7.008  24.334  32.146  0.00  0.00    +0.150 HD
BRANCH  49  51
ATOM     51  CA  ILE A   7      -7.914  24.546  34.077  0.00  0.00    +0.149 C 
BRANCH  51  52
ATOM     52  C   ILE A   7      -9.292  23.998  33.772  0.00  0.00    +0.241 C 
ATOM     53  N   GLY A   8      -9.852  23.248  34.726  0.00  0.00    -0.295 N 
ATOM     54  H   GLY A   8      -9.343  23.087  35.619  0.00  0.00    +0.150 HD
ATOM     55  O   ILE A   7      -9.839  24.252  32.671  0.00  0.00    -0.273 OA
BRANCH  53  56
ATOM     56  CA  GLY A   8     -11.171  22.652  34.528  0.00  0.00    +0.176 C 
BRANCH  56  57
ATOM     57  C   GLY A   8     -12.294  23.268  35.322  0.00  0.00    +0.243 C 
ATOM     58  O   GLY A   8     -12.085  24.175  36.145  0.00  0.00    -0.273 OA
ATOM     59  N   ARG A   9     -13.499  22.749  35.104  0.00  0.00    -0.297 N 
ATOM     60  H   ARG A   9     -13.575  21.890  34.523  0.00  0.00    +0.150 HD
BRANCH  59  61
ATOM     61  CA  ARG A   9     -14.718  23.337  35.648  0.00  0.00    +0.149 C 
BRANCH  61  62
ATOM     62  C   ARG A   9     -14.628  23.626  37.128  0.00  0.00    +0.241 C 
ATOM     63  N   ASN A  10     -13.818  22.893  37.904  0.00  0.00    -0.298 N 
ATOM     64  H   ASN A  10     -13.253  22.113  37.511  0.00  0.00    +0.150 HD
ATOM     65  O   ARG A   9     -15.323  24.521  37.586  0.00  0.00    -0.273 OA
BRANCH  63  66
ATOM     66  CA  ASN A  10     -13.759  23.236  39.339  0.00  0.00    +0.146 C 
BRANCH  66  67
ATOM     67  C   ASN A  10     -13.206  24.650  39.559  0.00  0.00    +0.227 C 
ATOM     68  O   ASN A  10     -13.653  25.318  40.448  0.00  0.00    -0.286 OA
ENDBRANCH  66  67
BRANCH  66  69
ATOM     69  CB  ASN A  10     -13.036  22.206  40.241  0.00  0.00    +0.112 C 
BRANCH  69  70
ATOM     70  CG  ASN A  10     -11.663  21.845  39.745  0.00  0.00    +0.222 C 
ATOM     71  ND2 ASN A  10     -10.881  21.208  40.592  0.00  0.00    -0.329 N 
ATOM     72 HD21 ASN A  10     -11.217  20.999  41.554  0.00  0.00    +0.145 HD
ATOM     73 HD22 ASN A  10      -9.927  20.914  40.299  0.00  0.00    +0.145 HD
ATOM     74  OD1 ASN A  10     -11.317  22.115  38.606  0.00  0.00    -0.275 OA
ENDBRANCH  69  70
ENDBRANCH  66  69
ENDBRANCH  63  66
ENDBRANCH  61  62
BRANCH  61  75
ATOM     75  CB  ARG A   9     -15.982  22.489  35.306  0.00  0.00    +0.033 C 
BRANCH  75  76
ATOM     76  CG  ARG A   9     -16.213  22.265  33.805  0.00  0.00    +0.045 C 
BRANCH  76  77
ATOM     77  CD  ARG A   9     -17.515  21.466  33.472  0.00  0.00    +0.174 C 
BRANCH  77  78
ATOM     78  NE  ARG A   9     -17.446  20.072  33.933  0.00  0.00    -0.265 N 
ATOM     79  CZ  ARG A   9     -17.881  19.645  35.117  0.00  0.00    +0.342 C 
ATOM     80  NH2 ARG A   9     -18.456  20.501  35.947  0.00  0.00    -0.292 N 
ATOM     81 HH21 ARG A   9     -18.799  20.176  36.874  0.00  0.00    +0.255 HD
ATOM     82 HH22 ARG A   9     -18.565  21.498  35.672  0.00  0.00    +0.255 HD
ATOM     83  NH1 ARG A   9     -17.740  18.351  35.475  0.00  0.00    -0.292 N 
ATOM     84 HH11 ARG A   9     -18.083  18.028  36.402  0.00  0.00    +0.255 HD
ATOM     85 HH12 ARG A   9     -17.288  17.678  34.824  0.00  0.00    +0.255 HD
ATOM     86  HE  ARG A   9     -17.028  19.370  33.289  0.00  0.00    +0.259 HD
ENDBRANCH  77  78
ENDBRANCH  76  77
ENDBRANCH  75  76
ENDBRANCH  61  75
ENDBRANCH  59  61
ENDBRANCH  56  57
ENDBRANCH  53  56
ENDBRANCH  51  52
BRANCH  51  87
ATOM     87  CB  ILE A   7      -7.950  26.090  33.890  0.00  0.00    +0.027 C 
ATOM     88  CG2 ILE A   7      -8.905  26.706  34.895  0.00  0.00    +0.002 C 
BRANCH  87  89
ATOM     89  CG1 ILE A   7      -6.511  26.699  33.919  0.00  0.00    +0.002 C 
ATOM     90  CD1 ILE A   7      -5.749  26.523  35.273  0.00  0.00    +0.000 C 
ENDBRANCH  87  89
ENDBRANCH  51  87
ENDBRANCH  49  51
ENDBRANCH   1  47
BRANCH   1  91
ATOM     91  CB  ILE A   6      -6.329  21.191  31.568  0.00  0.00    +0.027 C 
ATOM     92  CG2 ILE A   6      -5.778  20.756  30.224  0.00  0.00    +0.002 C 
BRANCH  91  93
ATOM     93  CG1 ILE A   6      -6.417  20.006  32.512  0.00  0.00    +0.002 C 
ATOM     94  CD1 ILE A   6      -6.923  18.770  31.842  0.00  0.00    +0.000 C 
ENDBRANCH  91  93
ENDBRANCH   1  91
TORSDOF 34
REMARK  Name = ../refined-set-2016/3ttp/3ttp_pocket.pdb
REMARK  209 active torsions:
REMARK  status: ('A' for Active; 'I' for Inactive)
REMARK    1  A    between atoms: _1  and  _3
REMARK    2  A    between atoms: _3  and  _4
REMARK    3  A    between atoms: _3  and  _6
REMARK    4  A    between atoms: _6  and  _7
REMARK    5  A    between atoms: _7  and  _8
REMARK    6  A    between atoms: _8  and  _9
REMARK    7  A    between atoms: _18  and  _20
REMARK    8  A    between atoms: _20  and  _21
REMARK    9  A    between atoms: _20  and  _23
REMARK   10  A    between atoms: _23  and  _24
REMARK   11  A    between atoms: _27  and  _29
REMARK   12  A    between atoms: _29  and  _30
REMARK   13  A    between atoms: _29  and  _32
REMARK   14  A    between atoms: _32  and  _33
REMARK   15  A    between atoms: _36  and  _38
REMARK   16  A    between atoms: _38  and  _39
REMARK   17  A    between atoms: _38  and  _41
REMARK   18  A    between atoms: _41  and  _42
REMARK   19  A    between atoms: _45  and  _47
REMARK   20  A    between atoms: _47  and  _48
REMARK   21  A    between atoms: _47  and  _50
REMARK   22  A    between atoms: _50  and  _51
REMARK   23  A    between atoms: _54  and  _56
REMARK   24  A    between atoms: _56  and  _57
REMARK   25  A    between atoms: _59  and  _61
REMARK   26  A    between atoms: _61  and  _62
REMARK   27  A    between atoms: _65  and  _67
REMARK   28  A    between atoms: _67  and  _68
REMARK   29  A    between atoms: _67  and  _70
REMARK   30  A    between atoms: _70  and  _71
REMARK   31  A    between atoms: _74  and  _76
REMARK   32  A    between atoms: _76  and  _77
REMARK   33  A    between atoms: _76  and  _79
REMARK   34  A    between atoms: _79  and  _80
REMARK   35  A    between atoms: _83  and  _85
REMARK   36  A    between atoms: _85  and  _86
REMARK   37  A    between atoms: _85  and  _88
REMARK   38  A    between atoms: _88  and  _89
REMARK   39  A    between atoms: _92  and  _94
REMARK   40  A    between atoms: _94  and  _95
REMARK   41  A    between atoms: _94  and  _97
REMARK   42  A    between atoms: _97  and  _98
REMARK   43  A    between atoms: _101  and  _103
REMARK   44  A    between atoms: _103  and  _104
REMARK   45  A    between atoms: _103  and  _106
REMARK   46  A    between atoms: _106  and  _107
REMARK   47  A    between atoms: _107  and  _108
REMARK   48  A    between atoms: _110  and  _112
REMARK   49  A    between atoms: _112  and  _113
REMARK   50  A    between atoms: _112  and  _115
REMARK   51  A    between atoms: _118  and  _120
REMARK   52  A    between atoms: _120  and  _121
REMARK   53  A    between atoms: _123  and  _125
REMARK   54  A    between atoms: _125  and  _126
REMARK   55  A    between atoms: _128  and  _130
REMARK   56  A    between atoms: _130  and  _131
REMARK   57  A    between atoms: _130  and  _133
REMARK   58  A    between atoms: _133  and  _134
REMARK   59  A    between atoms: _137  and  _139
REMARK   60  A    between atoms: _139  and  _140
REMARK   61  A    between atoms: _142  and  _144
REMARK   62  A    between atoms: _144  and  _145
REMARK   63  A    between atoms: _147  and  _149
REMARK   64  A    between atoms: _149  and  _150
REMARK   65  A    between atoms: _149  and  _152
REMARK   66  A    between atoms: _152  and  _153
REMARK   67  A    between atoms: _153  and  _154
REMARK   68  A    between atoms: _156  and  _158
REMARK   69  A    between atoms: _158  and  _159
REMARK   70  A    between atoms: _158  and  _161
REMARK   71  A    between atoms: _161  and  _162
REMARK   72  A    between atoms: _165  and  _167
REMARK   73  A    between atoms: _167  and  _168
REMARK   74  A    between atoms: _167  and  _170
REMARK   75  A    between atoms: _170  and  _171
REMARK   76  A    between atoms: _175  and  _176
REMARK   77  A    between atoms: _181  and  _183
REMARK   78  A    between atoms: _183  and  _184
REMARK   79  A    between atoms: _183  and  _186
REMARK   80  A    between atoms: _186  and  _187
REMARK   81  A    between atoms: _190  and  _192
REMARK   82  A    between atoms: _192  and  _193
REMARK   83  A    between atoms: _192  and  _195
REMARK   84  A    between atoms: _195  and  _196
REMARK   85  A    between atoms: _201  and  _203
REMARK   86  A    between atoms: _203  and  _204
REMARK   87  A    between atoms: _203  and  _206
REMARK   88  A    between atoms: _206  and  _207
REMARK   89  A    between atoms: _210  and  _212
REMARK   90  A    between atoms: _212  and  _213
REMARK   91  A    between atoms: _212  and  _215
REMARK   92  A    between atoms: _215  and  _216
REMARK   93  A    between atoms: _219  and  _221
REMARK   94  A    between atoms: _221  and  _222
REMARK   95  A    between atoms: _224  and  _226
REMARK   96  A    between atoms: _226  and  _227
REMARK   97  A    between atoms: _226  and  _229
REMARK   98  A    between atoms: _229  and  _230
REMARK   99  A    between atoms: _230  and  _231
REMARK  100  A    between atoms: _231  and  _232
REMARK  101  A    between atoms: _241  and  _243
REMARK  102  A    between atoms: _243  and  _244
REMARK  103  A    between atoms: _243  and  _246
REMARK  104  A    between atoms: _246  and  _247
REMARK  105  A    between atoms: _252  and  _254
REMARK  106  A    between atoms: _254  and  _255
REMARK  107  A    between atoms: _254  and  _257
REMARK  108  A    between atoms: _257  and  _258
REMARK  109  A    between atoms: _258  and  _259
REMARK  110  A    between atoms: _259  and  _260
REMARK  111  A    between atoms: _269  and  _271
REMARK  112  A    between atoms: _271  and  _272
REMARK  113  A    between atoms: _271  and  _274
REMARK  114  A    between atoms: _274  and  _275
REMARK  115  A    between atoms: _278  and  _280
REMARK  116  A    between atoms: _280  and  _281
REMARK  117  A    between atoms: _280  and  _283
REMARK  118  A    between atoms: _283  and  _284
REMARK  119  A    between atoms: _287  and  _289
REMARK  120  A    between atoms: _289  and  _290
REMARK  121  A    between atoms: _289  and  _292
REMARK  122  A    between atoms: _292  and  _293
REMARK  123  A    between atoms: _296  and  _298
REMARK  124  A    between atoms: _298  and  _299
REMARK  125  A    between atoms: _298  and  _301
REMARK  126  A    between atoms: _301  and  _302
REMARK  127  A    between atoms: _305  and  _307
REMARK  128  A    between atoms: _307  and  _308
REMARK  129  A    between atoms: _310  and  _312
REMARK  130  A    between atoms: _312  and  _313
REMARK  131  A    between atoms: _316  and  _318
REMARK  132  A    between atoms: _318  and  _319
REMARK  133  A    between atoms: _318  and  _321
REMARK  134  A    between atoms: _321  and  _322
REMARK  135  A    between atoms: _325  and  _327
REMARK  136  A    between atoms: _327  and  _328
REMARK  137  A    between atoms: _327  and  _330
REMARK  138  A    between atoms: _330  and  _331
REMARK  139  A    between atoms: _334  and  _336
REMARK  140  A    between atoms: _336  and  _337
REMARK  141  A    between atoms: _336  and  _339
REMARK  142  A    between atoms: _339  and  _340
REMARK  143  A    between atoms: _343  and  _345
REMARK  144  A    between atoms: _345  and  _346
REMARK  145  A    between atoms: _345  and  _348
REMARK  146  A    between atoms: _348  and  _349
REMARK  147  A    between atoms: _352  and  _354
REMARK  148  A    between atoms: _354  and  _355
REMARK  149  A    between atoms: _354  and  _357
REMARK  150  A    between atoms: _357  and  _358
REMARK  151  A    between atoms: _358  and  _359
REMARK  152  A    between atoms: _361  and  _363
REMARK  153  A    between atoms: _363  and  _364
REMARK  154  A    between atoms: _363  and  _366
REMARK  155  A    between atoms: _369  and  _371
REMARK  156  A    between atoms: _371  and  _372
REMARK  157  A    between atoms: _374  and  _376
REMARK  158  A    between atoms: _376  and  _377
REMARK  159  A    between atoms: _379  and  _381
REMARK  160  A    between atoms: _381  and  _382
REMARK  161  A    between atoms: _381  and  _384
REMARK  162  A    between atoms: _384  and  _385
REMARK  163  A    between atoms: _388  and  _390
REMARK  164  A    between atoms: _390  and  _391
REMARK  165  A    between atoms: _393  and  _395
REMARK  166  A    between atoms: _395  and  _396
REMARK  167  A    between atoms: _398  and  _400
REMARK  168  A    between atoms: _400  and  _401
REMARK  169  A    between atoms: _400  and  _403
REMARK  170  A    between atoms: _403  and  _404
REMARK  171  A    between atoms: _404  and  _405
REMARK  172  A    between atoms: _407  and  _409
REMARK  173  A    between atoms: _409  and  _410
REMARK  174  A    between atoms: _409  and  _412
REMARK  175  A    between atoms: _412  and  _413
REMARK  176  A    between atoms: _417  and  _418
REMARK  177  A    between atoms: _423  and  _425
REMARK  178  A    between atoms: _425  and  _426
REMARK  179  A    between atoms: _425  and  _428
REMARK  180  A    between atoms: _428  and  _429
REMARK  181  A    between atoms: _433  and  _434
REMARK  182  A    between atoms: _439  and  _441
REMARK  183  A    between atoms: _441  and  _442
REMARK  184  A    between atoms: _441  and  _444
REMARK  185  A    between atoms: _444  and  _445
REMARK  186  A    between atoms: _448  and  _450
REMARK  187  A    between atoms: _450  and  _451
REMARK  188  A    between atoms: _450  and  _453
REMARK  189  A    between atoms: _453  and  _454
REMARK  190  A    between atoms: _459  and  _461
REMARK  191  A    between atoms: _461  and  _462
REMARK  192  A    between atoms: _461  and  _464
REMARK  193  A    between atoms: _464  and  _465
REMARK  194  A    between atoms: _468  and  _470
REMARK  195  A    between atoms: _470  and  _471
REMARK  196  A    between atoms: _470  and  _473
REMARK  197  A    between atoms: _473  and  _474
REMARK  198  A    between atoms: _477  and  _479
REMARK  199  A    between atoms: _479  and  _480
REMARK  200  A    between atoms: _482  and  _484
REMARK  201  A    between atoms: _484  and  _485
REMARK  202  A    between atoms: _484  and  _487
REMARK  203  A    between atoms: _487  and  _488
REMARK  204  A    between atoms: _488  and  _489
REMARK  205  A    between atoms: _489  and  _490
REMARK  206  A    between atoms: _499  and  _501
REMARK  207  A    between atoms: _501  and  _502
REMARK  208  A    between atoms: _501  and  _504
REMARK  209  A    between atoms: _504  and  _505
REMARK                            x       y       z     vdW  Elec       q    Type
REMARK                         _______ _______ _______ _____ _____    ______ ____
ROOT
ATOM      1  O   HOH     1      -7.625  13.419  27.353  0.00  0.00    +0.000 OA
ENDROOT
TORSDOF 0
REMARK  Name = ../refined-set-2016/3ttp/3ttp_pocket.pdb
REMARK  209 active torsions:
REMARK  status: ('A' for Active; 'I' for Inactive)
REMARK    1  A    between atoms: _1  and  _3
REMARK    2  A    between atoms: _3  and  _4
REMARK    3  A    between atoms: _3  and  _6
REMARK    4  A    between atoms: _6  and  _7
REMARK    5  A    between atoms: _7  and  _8
REMARK    6  A    between atoms: _8  and  _9
REMARK    7  A    between atoms: _18  and  _20
REMARK    8  A    between atoms: _20  and  _21
REMARK    9  A    between atoms: _20  and  _23
REMARK   10  A    between atoms: _23  and  _24
REMARK   11  A    between atoms: _27  and  _29
REMARK   12  A    between atoms: _29  and  _30
REMARK   13  A    between atoms: _29  and  _32
REMARK   14  A    between atoms: _32  and  _33
REMARK   15  A    between atoms: _36  and  _38
REMARK   16  A    between atoms: _38  and  _39
REMARK   17  A    between atoms: _38  and  _41
REMARK   18  A    between atoms: _41  and  _42
REMARK   19  A    between atoms: _45  and  _47
REMARK   20  A    between atoms: _47  and  _48
REMARK   21  A    between atoms: _47  and  _50
REMARK   22  A    between atoms: _50  and  _51
REMARK   23  A    between atoms: _54  and  _56
REMARK   24  A    between atoms: _56  and  _57
REMARK   25  A    between atoms: _59  and  _61
REMARK   26  A    between atoms: _61  and  _62
REMARK   27  A    between atoms: _65  and  _67
REMARK   28  A    between atoms: _67  and  _68
REMARK   29  A    between atoms: _67  and  _70
REMARK   30  A    between atoms: _70  and  _71
REMARK   31  A    between atoms: _74  and  _76
REMARK   32  A    between atoms: _76  and  _77
REMARK   33  A    between atoms: _76  and  _79
REMARK   34  A    between atoms: _79  and  _80
REMARK   35  A    between atoms: _83  and  _85
REMARK   36  A    between atoms: _85  and  _86
REMARK   37  A    between atoms: _85  and  _88
REMARK   38  A    between atoms: _88  and  _89
REMARK   39  A    between atoms: _92  and  _94
REMARK   40  A    between atoms: _94  and  _95
REMARK   41  A    between atoms: _94  and  _97
REMARK   42  A    between atoms: _97  and  _98
REMARK   43  A    between atoms: _101  and  _103
REMARK   44  A    between atoms: _103  and  _104
REMARK   45  A    between atoms: _103  and  _106
REMARK   46  A    between atoms: _106  and  _107
REMARK   47  A    between atoms: _107  and  _108
REMARK   48  A    between atoms: _110  and  _112
REMARK   49  A    between atoms: _112  and  _113
REMARK   50  A    between atoms: _112  and  _115
REMARK   51  A    between atoms: _118  and  _120
REMARK   52  A    between atoms: _120  and  _121
REMARK   53  A    between atoms: _123  and  _125
REMARK   54  A    between atoms: _125  and  _126
REMARK   55  A    between atoms: _128  and  _130
REMARK   56  A    between atoms: _130  and  _131
REMARK   57  A    between atoms: _130  and  _133
REMARK   58  A    between atoms: _133  and  _134
REMARK   59  A    between atoms: _137  and  _139
REMARK   60  A    between atoms: _139  and  _140
REMARK   61  A    between atoms: _142  and  _144
REMARK   62  A    between atoms: _144  and  _145
REMARK   63  A    between atoms: _147  and  _149
REMARK   64  A    between atoms: _149  and  _150
REMARK   65  A    between atoms: _149  and  _152
REMARK   66  A    between atoms: _152  and  _153
REMARK   67  A    between atoms: _153  and  _154
REMARK   68  A    between atoms: _156  and  _158
REMARK   69  A    between atoms: _158  and  _159
REMARK   70  A    between atoms: _158  and  _161
REMARK   71  A    between atoms: _161  and  _162
REMARK   72  A    between atoms: _165  and  _167
REMARK   73  A    between atoms: _167  and  _168
REMARK   74  A    between atoms: _167  and  _170
REMARK   75  A    between atoms: _170  and  _171
REMARK   76  A    between atoms: _175  and  _176
REMARK   77  A    between atoms: _181  and  _183
REMARK   78  A    between atoms: _183  and  _184
REMARK   79  A    between atoms: _183  and  _186
REMARK   80  A    between atoms: _186  and  _187
REMARK   81  A    between atoms: _190  and  _192
REMARK   82  A    between atoms: _192  and  _193
REMARK   83  A    between atoms: _192  and  _195
REMARK   84  A    between atoms: _195  and  _196
REMARK   85  A    between atoms: _201  and  _203
REMARK   86  A    between atoms: _203  and  _204
REMARK   87  A    between atoms: _203  and  _206
REMARK   88  A    between atoms: _206  and  _207
REMARK   89  A    between atoms: _210  and  _212
REMARK   90  A    between atoms: _212  and  _213
REMARK   91  A    between atoms: _212  and  _215
REMARK   92  A    between atoms: _215  and  _216
REMARK   93  A    between atoms: _219  and  _221
REMARK   94  A    between atoms: _221  and  _222
REMARK   95  A    between atoms: _224  and  _226
REMARK   96  A    between atoms: _226  and  _227
REMARK   97  A    between atoms: _226  and  _229
REMARK   98  A    between atoms: _229  and  _230
REMARK   99  A    between atoms: _230  and  _231
REMARK  100  A    between atoms: _231  and  _232
REMARK  101  A    between atoms: _241  and  _243
REMARK  102  A    between atoms: _243  and  _244
REMARK  103  A    between atoms: _243  and  _246
REMARK  104  A    between atoms: _246  and  _247
REMARK  105  A    between atoms: _252  and  _254
REMARK  106  A    between atoms: _254  and  _255
REMARK  107  A    between atoms: _254  and  _257
REMARK  108  A    between atoms: _257  and  _258
REMARK  109  A    between atoms: _258  and  _259
REMARK  110  A    between atoms: _259  and  _260
REMARK  111  A    between atoms: _269  and  _271
REMARK  112  A    between atoms: _271  and  _272
REMARK  113  A    between atoms: _271  and  _274
REMARK  114  A    between atoms: _274  and  _275
REMARK  115  A    between atoms: _278  and  _280
REMARK  116  A    between atoms: _280  and  _281
REMARK  117  A    between atoms: _280  and  _283
REMARK  118  A    between atoms: _283  and  _284
REMARK  119  A    between atoms: _287  and  _289
REMARK  120  A    between atoms: _289  and  _290
REMARK  121  A    between atoms: _289  and  _292
REMARK  122  A    between atoms: _292  and  _293
REMARK  123  A    between atoms: _296  and  _298
REMARK  124  A    between atoms: _298  and  _299
REMARK  125  A    between atoms: _298  and  _301
REMARK  126  A    between atoms: _301  and  _302
REMARK  127  A    between atoms: _305  and  _307
REMARK  128  A    between atoms: _307  and  _308
REMARK  129  A    between atoms: _310  and  _312
REMARK  130  A    between atoms: _312  and  _313
REMARK  131  A    between atoms: _316  and  _318
REMARK  132  A    between atoms: _318  and  _319
REMARK  133  A    between atoms: _318  and  _321
REMARK  134  A    between atoms: _321  and  _322
REMARK  135  A    between atoms: _325  and  _327
REMARK  136  A    between atoms: _327  and  _328
REMARK  137  A    between atoms: _327  and  _330
REMARK  138  A    between atoms: _330  and  _331
REMARK  139  A    between atoms: _334  and  _336
REMARK  140  A    between atoms: _336  and  _337
REMARK  141  A    between atoms: _336  and  _339
REMARK  142  A    between atoms: _339  and  _340
REMARK  143  A    between atoms: _343  and  _345
REMARK  144  A    between atoms: _345  and  _346
REMARK  145  A    between atoms: _345  and  _348
REMARK  146  A    between atoms: _348  and  _349
REMARK  147  A    between atoms: _352  and  _354
REMARK  148  A    between atoms: _354  and  _355
REMARK  149  A    between atoms: _354  and  _357
REMARK  150  A    between atoms: _357  and  _358
REMARK  151  A    between atoms: _358  and  _359
REMARK  152  A    between atoms: _361  and  _363
REMARK  153  A    between atoms: _363  and  _364
REMARK  154  A    between atoms: _363  and  _366
REMARK  155  A    between atoms: _369  and  _371
REMARK  156  A    between atoms: _371  and  _372
REMARK  157  A    between atoms: _374  and  _376
REMARK  158  A    between atoms: _376  and  _377
REMARK  159  A    between atoms: _379  and  _381
REMARK  160  A    between atoms: _381  and  _382
REMARK  161  A    between atoms: _381  and  _384
REMARK  162  A    between atoms: _384  and  _385
REMARK  163  A    between atoms: _388  and  _390
REMARK  164  A    between atoms: _390  and  _391
REMARK  165  A    between atoms: _393  and  _395
REMARK  166  A    between atoms: _395  and  _396
REMARK  167  A    between atoms: _398  and  _400
REMARK  168  A    between atoms: _400  and  _401
REMARK  169  A    between atoms: _400  and  _403
REMARK  170  A    between atoms: _403  and  _404
REMARK  171  A    between atoms: _404  and  _405
REMARK  172  A    between atoms: _407  and  _409
REMARK  173  A    between atoms: _409  and  _410
REMARK  174  A    between atoms: _409  and  _412
REMARK  175  A    between atoms: _412  and  _413
REMARK  176  A    between atoms: _417  and  _418
REMARK  177  A    between atoms: _423  and  _425
REMARK  178  A    between atoms: _425  and  _426
REMARK  179  A    between atoms: _425  and  _428
REMARK  180  A    between atoms: _428  and  _429
REMARK  181  A    between atoms: _433  and  _434
REMARK  182  A    between atoms: _439  and  _441
REMARK  183  A    between atoms: _441  and  _442
REMARK  184  A    between atoms: _441  and  _444
REMARK  185  A    between atoms: _444  and  _445
REMARK  186  A    between atoms: _448  and  _450
REMARK  187  A    between atoms: _450  and  _451
REMARK  188  A    between atoms: _450  and  _453
REMARK  189  A    between atoms: _453  and  _454
REMARK  190  A    between atoms: _459  and  _461
REMARK  191  A    between atoms: _461  and  _462
REMARK  192  A    between atoms: _461  and  _464
REMARK  193  A    between atoms: _464  and  _465
REMARK  194  A    between atoms: _468  and  _470
REMARK  195  A    between atoms: _470  and  _471
REMARK  196  A    between atoms: _470  and  _473
REMARK  197  A    between atoms: _473  and  _474
REMARK  198  A    between atoms: _477  and  _479
REMARK  199  A    between atoms: _479  and  _480
REMARK  200  A    between atoms: _482  and  _484
REMARK  201  A    between atoms: _484  and  _485
REMARK  202  A    between atoms: _484  and  _487
REMARK  203  A    between atoms: _487  and  _488
REMARK  204  A    between atoms: _488  and  _489
REMARK  205  A    between atoms: _489  and  _490
REMARK  206  A    between atoms: _499  and  _501
REMARK  207  A    between atoms: _501  and  _502
REMARK  208  A    between atoms: _501  and  _504
REMARK  209  A    between atoms: _504  and  _505
REMARK                            x       y       z     vdW  Elec       q    Type
REMARK                         _______ _______ _______ _____ _____    ______ ____
ROOT
ATOM      1  O   HOH     1      -9.324  23.793  16.080  0.00  0.00    +0.000 OA
ENDROOT
TORSDOF 0
REMARK  Name = ../refined-set-2016/3ttp/3ttp_pocket.pdb
REMARK  209 active torsions:
REMARK  status: ('A' for Active; 'I' for Inactive)
REMARK    1  A    between atoms: _1  and  _3
REMARK    2  A    between atoms: _3  and  _4
REMARK    3  A    between atoms: _3  and  _6
REMARK    4  A    between atoms: _6  and  _7
REMARK    5  A    between atoms: _7  and  _8
REMARK    6  A    between atoms: _8  and  _9
REMARK    7  A    between atoms: _18  and  _20
REMARK    8  A    between atoms: _20  and  _21
REMARK    9  A    between atoms: _20  and  _23
REMARK   10  A    between atoms: _23  and  _24
REMARK   11  A    between atoms: _27  and  _29
REMARK   12  A    between atoms: _29  and  _30
REMARK   13  A    between atoms: _29  and  _32
REMARK   14  A    between atoms: _32  and  _33
REMARK   15  A    between atoms: _36  and  _38
REMARK   16  A    between atoms: _38  and  _39
REMARK   17  A    between atoms: _38  and  _41
REMARK   18  A    between atoms: _41  and  _42
REMARK   19  A    between atoms: _45  and  _47
REMARK   20  A    between atoms: _47  and  _48
REMARK   21  A    between atoms: _47  and  _50
REMARK   22  A    between atoms: _50  and  _51
REMARK   23  A    between atoms: _54  and  _56
REMARK   24  A    between atoms: _56  and  _57
REMARK   25  A    between atoms: _59  and  _61
REMARK   26  A    between atoms: _61  and  _62
REMARK   27  A    between atoms: _65  and  _67
REMARK   28  A    between atoms: _67  and  _68
REMARK   29  A    between atoms: _67  and  _70
REMARK   30  A    between atoms: _70  and  _71
REMARK   31  A    between atoms: _74  and  _76
REMARK   32  A    between atoms: _76  and  _77
REMARK   33  A    between atoms: _76  and  _79
REMARK   34  A    between atoms: _79  and  _80
REMARK   35  A    between atoms: _83  and  _85
REMARK   36  A    between atoms: _85  and  _86
REMARK   37  A    between atoms: _85  and  _88
REMARK   38  A    between atoms: _88  and  _89
REMARK   39  A    between atoms: _92  and  _94
REMARK   40  A    between atoms: _94  and  _95
REMARK   41  A    between atoms: _94  and  _97
REMARK   42  A    between atoms: _97  and  _98
REMARK   43  A    between atoms: _101  and  _103
REMARK   44  A    between atoms: _103  and  _104
REMARK   45  A    between atoms: _103  and  _106
REMARK   46  A    between atoms: _106  and  _107
REMARK   47  A    between atoms: _107  and  _108
REMARK   48  A    between atoms: _110  and  _112
REMARK   49  A    between atoms: _112  and  _113
REMARK   50  A    between atoms: _112  and  _115
REMARK   51  A    between atoms: _118  and  _120
REMARK   52  A    between atoms: _120  and  _121
REMARK   53  A    between atoms: _123  and  _125
REMARK   54  A    between atoms: _125  and  _126
REMARK   55  A    between atoms: _128  and  _130
REMARK   56  A    between atoms: _130  and  _131
REMARK   57  A    between atoms: _130  and  _133
REMARK   58  A    between atoms: _133  and  _134
REMARK   59  A    between atoms: _137  and  _139
REMARK   60  A    between atoms: _139  and  _140
REMARK   61  A    between atoms: _142  and  _144
REMARK   62  A    between atoms: _144  and  _145
REMARK   63  A    between atoms: _147  and  _149
REMARK   64  A    between atoms: _149  and  _150
REMARK   65  A    between atoms: _149  and  _152
REMARK   66  A    between atoms: _152  and  _153
REMARK   67  A    between atoms: _153  and  _154
REMARK   68  A    between atoms: _156  and  _158
REMARK   69  A    between atoms: _158  and  _159
REMARK   70  A    between atoms: _158  and  _161
REMARK   71  A    between atoms: _161  and  _162
REMARK   72  A    between atoms: _165  and  _167
REMARK   73  A    between atoms: _167  and  _168
REMARK   74  A    between atoms: _167  and  _170
REMARK   75  A    between atoms: _170  and  _171
REMARK   76  A    between atoms: _175  and  _176
REMARK   77  A    between atoms: _181  and  _183
REMARK   78  A    between atoms: _183  and  _184
REMARK   79  A    between atoms: _183  and  _186
REMARK   80  A    between atoms: _186  and  _187
REMARK   81  A    between atoms: _190  and  _192
REMARK   82  A    between atoms: _192  and  _193
REMARK   83  A    between atoms: _192  and  _195
REMARK   84  A    between atoms: _195  and  _196
REMARK   85  A    between atoms: _201  and  _203
REMARK   86  A    between atoms: _203  and  _204
REMARK   87  A    between atoms: _203  and  _206
REMARK   88  A    between atoms: _206  and  _207
REMARK   89  A    between atoms: _210  and  _212
REMARK   90  A    between atoms: _212  and  _213
REMARK   91  A    between atoms: _212  and  _215
REMARK   92  A    between atoms: _215  and  _216
REMARK   93  A    between atoms: _219  and  _221
REMARK   94  A    between atoms: _221  and  _222
REMARK   95  A    between atoms: _224  and  _226
REMARK   96  A    between atoms: _226  and  _227
REMARK   97  A    between atoms: _226  and  _229
REMARK   98  A    between atoms: _229  and  _230
REMARK   99  A    between atoms: _230  and  _231
REMARK  100  A    between atoms: _231  and  _232
REMARK  101  A    between atoms: _241  and  _243
REMARK  102  A    between atoms: _243  and  _244
REMARK  103  A    between atoms: _243  and  _246
REMARK  104  A    between atoms: _246  and  _247
REMARK  105  A    between atoms: _252  and  _254
REMARK  106  A    between atoms: _254  and  _255
REMARK  107  A    between atoms: _254  and  _257
REMARK  108  A    between atoms: _257  and  _258
REMARK  109  A    between atoms: _258  and  _259
REMARK  110  A    between atoms: _259  and  _260
REMARK  111  A    between atoms: _269  and  _271
REMARK  112  A    between atoms: _271  and  _272
REMARK  113  A    between atoms: _271  and  _274
REMARK  114  A    between atoms: _274  and  _275
REMARK  115  A    between atoms: _278  and  _280
REMARK  116  A    between atoms: _280  and  _281
REMARK  117  A    between atoms: _280  and  _283
REMARK  118  A    between atoms: _283  and  _284
REMARK  119  A    between atoms: _287  and  _289
REMARK  120  A    between atoms: _289  and  _290
REMARK  121  A    between atoms: _289  and  _292
REMARK  122  A    between atoms: _292  and  _293
REMARK  123  A    between atoms: _296  and  _298
REMARK  124  A    between atoms: _298  and  _299
REMARK  125  A    between atoms: _298  and  _301
REMARK  126  A    between atoms: _301  and  _302
REMARK  127  A    between atoms: _305  and  _307
REMARK  128  A    between atoms: _307  and  _308
REMARK  129  A    between atoms: _310  and  _312
REMARK  130  A    between atoms: _312  and  _313
REMARK  131  A    between atoms: _316  and  _318
REMARK  132  A    between atoms: _318  and  _319
REMARK  133  A    between atoms: _318  and  _321
REMARK  134  A    between atoms: _321  and  _322
REMARK  135  A    between atoms: _325  and  _327
REMARK  136  A    between atoms: _327  and  _328
REMARK  137  A    between atoms: _327  and  _330
REMARK  138  A    between atoms: _330  and  _331
REMARK  139  A    between atoms: _334  and  _336
REMARK  140  A    between atoms: _336  and  _337
REMARK  141  A    between atoms: _336  and  _339
REMARK  142  A    between atoms: _339  and  _340
REMARK  143  A    between atoms: _343  and  _345
REMARK  144  A    between atoms: _345  and  _346
REMARK  145  A    between atoms: _345  and  _348
REMARK  146  A    between atoms: _348  and  _349
REMARK  147  A    between atoms: _352  and  _354
REMARK  148  A    between atoms: _354  and  _355
REMARK  149  A    between atoms: _354  and  _357
REMARK  150  A    between atoms: _357  and  _358
REMARK  151  A    between atoms: _358  and  _359
REMARK  152  A    between atoms: _361  and  _363
REMARK  153  A    between atoms: _363  and  _364
REMARK  154  A    between atoms: _363  and  _366
REMARK  155  A    between atoms: _369  and  _371
REMARK  156  A    between atoms: _371  and  _372
REMARK  157  A    between atoms: _374  and  _376
REMARK  158  A    between atoms: _376  and  _377
REMARK  159  A    between atoms: _379  and  _381
REMARK  160  A    between atoms: _381  and  _382
REMARK  161  A    between atoms: _381  and  _384
REMARK  162  A    between atoms: _384  and  _385
REMARK  163  A    between atoms: _388  and  _390
REMARK  164  A    between atoms: _390  and  _391
REMARK  165  A    between atoms: _393  and  _395
REMARK  166  A    between atoms: _395  and  _396
REMARK  167  A    between atoms: _398  and  _400
REMARK  168  A    between atoms: _400  and  _401
REMARK  169  A    between atoms: _400  and  _403
REMARK  170  A    between atoms: _403  and  _404
REMARK  171  A    between atoms: _404  and  _405
REMARK  172  A    between atoms: _407  and  _409
REMARK  173  A    between atoms: _409  and  _410
REMARK  174  A    between atoms: _409  and  _412
REMARK  175  A    between atoms: _412  and  _413
REMARK  176  A    between atoms: _417  and  _418
REMARK  177  A    between atoms: _423  and  _425
REMARK  178  A    between atoms: _425  and  _426
REMARK  179  A    between atoms: _425  and  _428
REMARK  180  A    between atoms: _428  and  _429
REMARK  181  A    between atoms: _433  and  _434
REMARK  182  A    between atoms: _439  and  _441
REMARK  183  A    between atoms: _441  and  _442
REMARK  184  A    between atoms: _441  and  _444
REMARK  185  A    between atoms: _444  and  _445
REMARK  186  A    between atoms: _448  and  _450
REMARK  187  A    between atoms: _450  and  _451
REMARK  188  A    between atoms: _450  and  _453
REMARK  189  A    between atoms: _453  and  _454
REMARK  190  A    between atoms: _459  and  _461
REMARK  191  A    between atoms: _461  and  _462
REMARK  192  A    between atoms: _461  and  _464
REMARK  193  A    between atoms: _464  and  _465
REMARK  194  A    between atoms: _468  and  _470
REMARK  195  A    between atoms: _470  and  _471
REMARK  196  A    between atoms: _470  and  _473
REMARK  197  A    between atoms: _473  and  _474
REMARK  198  A    between atoms: _477  and  _479
REMARK  199  A    between atoms: _479  and  _480
REMARK  200  A    between atoms: _482  and  _484
REMARK  201  A    between atoms: _484  and  _485
REMARK  202  A    between atoms: _484  and  _487
REMARK  203  A    between atoms: _487  and  _488
REMARK  204  A    between atoms: _488  and  _489
REMARK  205  A    between atoms: _489  and  _490
REMARK  206  A    between atoms: _499  and  _501
REMARK  207  A    between atoms: _501  and  _502
REMARK  208  A    between atoms: _501  and  _504
REMARK  209  A    between atoms: _504  and  _505
REMARK                            x       y       z     vdW  Elec       q    Type
REMARK                         _______ _______ _______ _____ _____    ______ ____
ROOT
ATOM      1  O   HOH     1      -6.283  16.664  17.071  0.00  0.00    +0.000 OA
ENDROOT
TORSDOF 0
REMARK  Name = ../refined-set-2016/3ttp/3ttp_pocket.pdb
REMARK  209 active torsions:
REMARK  status: ('A' for Active; 'I' for Inactive)
REMARK    1  A    between atoms: _1  and  _3
REMARK    2  A    between atoms: _3  and  _4
REMARK    3  A    between atoms: _3  and  _6
REMARK    4  A    between atoms: _6  and  _7
REMARK    5  A    between atoms: _7  and  _8
REMARK    6  A    between atoms: _8  and  _9
REMARK    7  A    between atoms: _18  and  _20
REMARK    8  A    between atoms: _20  and  _21
REMARK    9  A    between atoms: _20  and  _23
REMARK   10  A    between atoms: _23  and  _24
REMARK   11  A    between atoms: _27  and  _29
REMARK   12  A    between atoms: _29  and  _30
REMARK   13  A    between atoms: _29  and  _32
REMARK   14  A    between atoms: _32  and  _33
REMARK   15  A    between atoms: _36  and  _38
REMARK   16  A    between atoms: _38  and  _39
REMARK   17  A    between atoms: _38  and  _41
REMARK   18  A    between atoms: _41  and  _42
REMARK   19  A    between atoms: _45  and  _47
REMARK   20  A    between atoms: _47  and  _48
REMARK   21  A    between atoms: _47  and  _50
REMARK   22  A    between atoms: _50  and  _51
REMARK   23  A    between atoms: _54  and  _56
REMARK   24  A    between atoms: _56  and  _57
REMARK   25  A    between atoms: _59  and  _61
REMARK   26  A    between atoms: _61  and  _62
REMARK   27  A    between atoms: _65  and  _67
REMARK   28  A    between atoms: _67  and  _68
REMARK   29  A    between atoms: _67  and  _70
REMARK   30  A    between atoms: _70  and  _71
REMARK   31  A    between atoms: _74  and  _76
REMARK   32  A    between atoms: _76  and  _77
REMARK   33  A    between atoms: _76  and  _79
REMARK   34  A    between atoms: _79  and  _80
REMARK   35  A    between atoms: _83  and  _85
REMARK   36  A    between atoms: _85  and  _86
REMARK   37  A    between atoms: _85  and  _88
REMARK   38  A    between atoms: _88  and  _89
REMARK   39  A    between atoms: _92  and  _94
REMARK   40  A    between atoms: _94  and  _95
REMARK   41  A    between atoms: _94  and  _97
REMARK   42  A    between atoms: _97  and  _98
REMARK   43  A    between atoms: _101  and  _103
REMARK   44  A    between atoms: _103  and  _104
REMARK   45  A    between atoms: _103  and  _106
REMARK   46  A    between atoms: _106  and  _107
REMARK   47  A    between atoms: _107  and  _108
REMARK   48  A    between atoms: _110  and  _112
REMARK   49  A    between atoms: _112  and  _113
REMARK   50  A    between atoms: _112  and  _115
REMARK   51  A    between atoms: _118  and  _120
REMARK   52  A    between atoms: _120  and  _121
REMARK   53  A    between atoms: _123  and  _125
REMARK   54  A    between atoms: _125  and  _126
REMARK   55  A    between atoms: _128  and  _130
REMARK   56  A    between atoms: _130  and  _131
REMARK   57  A    between atoms: _130  and  _133
REMARK   58  A    between atoms: _133  and  _134
REMARK   59  A    between atoms: _137  and  _139
REMARK   60  A    between atoms: _139  and  _140
REMARK   61  A    between atoms: _142  and  _144
REMARK   62  A    between atoms: _144  and  _145
REMARK   63  A    between atoms: _147  and  _149
REMARK   64  A    between atoms: _149  and  _150
REMARK   65  A    between atoms: _149  and  _152
REMARK   66  A    between atoms: _152  and  _153
REMARK   67  A    between atoms: _153  and  _154
REMARK   68  A    between atoms: _156  and  _158
REMARK   69  A    between atoms: _158  and  _159
REMARK   70  A    between atoms: _158  and  _161
REMARK   71  A    between atoms: _161  and  _162
REMARK   72  A    between atoms: _165  and  _167
REMARK   73  A    between atoms: _167  and  _168
REMARK   74  A    between atoms: _167  and  _170
REMARK   75  A    between atoms: _170  and  _171
REMARK   76  A    between atoms: _175  and  _176
REMARK   77  A    between atoms: _181  and  _183
REMARK   78  A    between atoms: _183  and  _184
REMARK   79  A    between atoms: _183  and  _186
REMARK   80  A    between atoms: _186  and  _187
REMARK   81  A    between atoms: _190  and  _192
REMARK   82  A    between atoms: _192  and  _193
REMARK   83  A    between atoms: _192  and  _195
REMARK   84  A    between atoms: _195  and  _196
REMARK   85  A    between atoms: _201  and  _203
REMARK   86  A    between atoms: _203  and  _204
REMARK   87  A    between atoms: _203  and  _206
REMARK   88  A    between atoms: _206  and  _207
REMARK   89  A    between atoms: _210  and  _212
REMARK   90  A    between atoms: _212  and  _213
REMARK   91  A    between atoms: _212  and  _215
REMARK   92  A    between atoms: _215  and  _216
REMARK   93  A    between atoms: _219  and  _221
REMARK   94  A    between atoms: _221  and  _222
REMARK   95  A    between atoms: _224  and  _226
REMARK   96  A    between atoms: _226  and  _227
REMARK   97  A    between atoms: _226  and  _229
REMARK   98  A    between atoms: _229  and  _230
REMARK   99  A    between atoms: _230  and  _231
REMARK  100  A    between atoms: _231  and  _232
REMARK  101  A    between atoms: _241  and  _243
REMARK  102  A    between atoms: _243  and  _244
REMARK  103  A    between atoms: _243  and  _246
REMARK  104  A    between atoms: _246  and  _247
REMARK  105  A    between atoms: _252  and  _254
REMARK  106  A    between atoms: _254  and  _255
REMARK  107  A    between atoms: _254  and  _257
REMARK  108  A    between atoms: _257  and  _258
REMARK  109  A    between atoms: _258  and  _259
REMARK  110  A    between atoms: _259  and  _260
REMARK  111  A    between atoms: _269  and  _271
REMARK  112  A    between atoms: _271  and  _272
REMARK  113  A    between atoms: _271  and  _274
REMARK  114  A    between atoms: _274  and  _275
REMARK  115  A    between atoms: _278  and  _280
REMARK  116  A    between atoms: _280  and  _281
REMARK  117  A    between atoms: _280  and  _283
REMARK  118  A    between atoms: _283  and  _284
REMARK  119  A    between atoms: _287  and  _289
REMARK  120  A    between atoms: _289  and  _290
REMARK  121  A    between atoms: _289  and  _292
REMARK  122  A    between atoms: _292  and  _293
REMARK  123  A    between atoms: _296  and  _298
REMARK  124  A    between atoms: _298  and  _299
REMARK  125  A    between atoms: _298  and  _301
REMARK  126  A    between atoms: _301  and  _302
REMARK  127  A    between atoms: _305  and  _307
REMARK  128  A    between atoms: _307  and  _308
REMARK  129  A    between atoms: _310  and  _312
REMARK  130  A    between atoms: _312  and  _313
REMARK  131  A    between atoms: _316  and  _318
REMARK  132  A    between atoms: _318  and  _319
REMARK  133  A    between atoms: _318  and  _321
REMARK  134  A    between atoms: _321  and  _322
REMARK  135  A    between atoms: _325  and  _327
REMARK  136  A    between atoms: _327  and  _328
REMARK  137  A    between atoms: _327  and  _330
REMARK  138  A    between atoms: _330  and  _331
REMARK  139  A    between atoms: _334  and  _336
REMARK  140  A    between atoms: _336  and  _337
REMARK  141  A    between atoms: _336  and  _339
REMARK  142  A    between atoms: _339  and  _340
REMARK  143  A    between atoms: _343  and  _345
REMARK  144  A    between atoms: _345  and  _346
REMARK  145  A    between atoms: _345  and  _348
REMARK  146  A    between atoms: _348  and  _349
REMARK  147  A    between atoms: _352  and  _354
REMARK  148  A    between atoms: _354  and  _355
REMARK  149  A    between atoms: _354  and  _357
REMARK  150  A    between atoms: _357  and  _358
REMARK  151  A    between atoms: _358  and  _359
REMARK  152  A    between atoms: _361  and  _363
REMARK  153  A    between atoms: _363  and  _364
REMARK  154  A    between atoms: _363  and  _366
REMARK  155  A    between atoms: _369  and  _371
REMARK  156  A    between atoms: _371  and  _372
REMARK  157  A    between atoms: _374  and  _376
REMARK  158  A    between atoms: _376  and  _377
REMARK  159  A    between atoms: _379  and  _381
REMARK  160  A    between atoms: _381  and  _382
REMARK  161  A    between atoms: _381  and  _384
REMARK  162  A    between atoms: _384  and  _385
REMARK  163  A    between atoms: _388  and  _390
REMARK  164  A    between atoms: _390  and  _391
REMARK  165  A    between atoms: _393  and  _395
REMARK  166  A    between atoms: _395  and  _396
REMARK  167  A    between atoms: _398  and  _400
REMARK  168  A    between atoms: _400  and  _401
REMARK  169  A    between atoms: _400  and  _403
REMARK  170  A    between atoms: _403  and  _404
REMARK  171  A    between atoms: _404  and  _405
REMARK  172  A    between atoms: _407  and  _409
REMARK  173  A    between atoms: _409  and  _410
REMARK  174  A    between atoms: _409  and  _412
REMARK  175  A    between atoms: _412  and  _413
REMARK  176  A    between atoms: _417  and  _418
REMARK  177  A    between atoms: _423  and  _425
REMARK  178  A    between atoms: _425  and  _426
REMARK  179  A    between atoms: _425  and  _428
REMARK  180  A    between atoms: _428  and  _429
REMARK  181  A    between atoms: _433  and  _434
REMARK  182  A    between atoms: _439  and  _441
REMARK  183  A    between atoms: _441  and  _442
REMARK  184  A    between atoms: _441  and  _444
REMARK  185  A    between atoms: _444  and  _445
REMARK  186  A    between atoms: _448  and  _450
REMARK  187  A    between atoms: _450  and  _451
REMARK  188  A    between atoms: _450  and  _453
REMARK  189  A    between atoms: _453  and  _454
REMARK  190  A    between atoms: _459  and  _461
REMARK  191  A    between atoms: _461  and  _462
REMARK  192  A    between atoms: _461  and  _464
REMARK  193  A    between atoms: _464  and  _465
REMARK  194  A    between atoms: _468  and  _470
REMARK  195  A    between atoms: _470  and  _471
REMARK  196  A    between atoms: _470  and  _473
REMARK  197  A    between atoms: _473  and  _474
REMARK  198  A    between atoms: _477  and  _479
REMARK  199  A    between atoms: _479  and  _480
REMARK  200  A    between atoms: _482  and  _484
REMARK  201  A    between atoms: _484  and  _485
REMARK  202  A    between atoms: _484  and  _487
REMARK  203  A    between atoms: _487  and  _488
REMARK  204  A    between atoms: _488  and  _489
REMARK  205  A    between atoms: _489  and  _490
REMARK  206  A    between atoms: _499  and  _501
REMARK  207  A    between atoms: _501  and  _502
REMARK  208  A    between atoms: _501  and  _504
REMARK  209  A    between atoms: _504  and  _505
REMARK                            x       y       z     vdW  Elec       q    Type
REMARK                         _______ _______ _______ _____ _____    ______ ____
ROOT
ATOM      1  O   HOH     1      -3.104  15.113  17.470  0.00  0.00    +0.000 OA
ENDROOT
TORSDOF 0
REMARK  Name = ../refined-set-2016/3ttp/3ttp_pocket.pdb
REMARK  209 active torsions:
REMARK  status: ('A' for Active; 'I' for Inactive)
REMARK    1  A    between atoms: _1  and  _3
REMARK    2  A    between atoms: _3  and  _4
REMARK    3  A    between atoms: _3  and  _6
REMARK    4  A    between atoms: _6  and  _7
REMARK    5  A    between atoms: _7  and  _8
REMARK    6  A    between atoms: _8  and  _9
REMARK    7  A    between atoms: _18  and  _20
REMARK    8  A    between atoms: _20  and  _21
REMARK    9  A    between atoms: _20  and  _23
REMARK   10  A    between atoms: _23  and  _24
REMARK   11  A    between atoms: _27  and  _29
REMARK   12  A    between atoms: _29  and  _30
REMARK   13  A    between atoms: _29  and  _32
REMARK   14  A    between atoms: _32  and  _33
REMARK   15  A    between atoms: _36  and  _38
REMARK   16  A    between atoms: _38  and  _39
REMARK   17  A    between atoms: _38  and  _41
REMARK   18  A    between atoms: _41  and  _42
REMARK   19  A    between atoms: _45  and  _47
REMARK   20  A    between atoms: _47  and  _48
REMARK   21  A    between atoms: _47  and  _50
REMARK   22  A    between atoms: _50  and  _51
REMARK   23  A    between atoms: _54  and  _56
REMARK   24  A    between atoms: _56  and  _57
REMARK   25  A    between atoms: _59  and  _61
REMARK   26  A    between atoms: _61  and  _62
REMARK   27  A    between atoms: _65  and  _67
REMARK   28  A    between atoms: _67  and  _68
REMARK   29  A    between atoms: _67  and  _70
REMARK   30  A    between atoms: _70  and  _71
REMARK   31  A    between atoms: _74  and  _76
REMARK   32  A    between atoms: _76  and  _77
REMARK   33  A    between atoms: _76  and  _79
REMARK   34  A    between atoms: _79  and  _80
REMARK   35  A    between atoms: _83  and  _85
REMARK   36  A    between atoms: _85  and  _86
REMARK   37  A    between atoms: _85  and  _88
REMARK   38  A    between atoms: _88  and  _89
REMARK   39  A    between atoms: _92  and  _94
REMARK   40  A    between atoms: _94  and  _95
REMARK   41  A    between atoms: _94  and  _97
REMARK   42  A    between atoms: _97  and  _98
REMARK   43  A    between atoms: _101  and  _103
REMARK   44  A    between atoms: _103  and  _104
REMARK   45  A    between atoms: _103  and  _106
REMARK   46  A    between atoms: _106  and  _107
REMARK   47  A    between atoms: _107  and  _108
REMARK   48  A    between atoms: _110  and  _112
REMARK   49  A    between atoms: _112  and  _113
REMARK   50  A    between atoms: _112  and  _115
REMARK   51  A    between atoms: _118  and  _120
REMARK   52  A    between atoms: _120  and  _121
REMARK   53  A    between atoms: _123  and  _125
REMARK   54  A    between atoms: _125  and  _126
REMARK   55  A    between atoms: _128  and  _130
REMARK   56  A    between atoms: _130  and  _131
REMARK   57  A    between atoms: _130  and  _133
REMARK   58  A    between atoms: _133  and  _134
REMARK   59  A    between atoms: _137  and  _139
REMARK   60  A    between atoms: _139  and  _140
REMARK   61  A    between atoms: _142  and  _144
REMARK   62  A    between atoms: _144  and  _145
REMARK   63  A    between atoms: _147  and  _149
REMARK   64  A    between atoms: _149  and  _150
REMARK   65  A    between atoms: _149  and  _152
REMARK   66  A    between atoms: _152  and  _153
REMARK   67  A    between atoms: _153  and  _154
REMARK   68  A    between atoms: _156  and  _158
REMARK   69  A    between atoms: _158  and  _159
REMARK   70  A    between atoms: _158  and  _161
REMARK   71  A    between atoms: _161  and  _162
REMARK   72  A    between atoms: _165  and  _167
REMARK   73  A    between atoms: _167  and  _168
REMARK   74  A    between atoms: _167  and  _170
REMARK   75  A    between atoms: _170  and  _171
REMARK   76  A    between atoms: _175  and  _176
REMARK   77  A    between atoms: _181  and  _183
REMARK   78  A    between atoms: _183  and  _184
REMARK   79  A    between atoms: _183  and  _186
REMARK   80  A    between atoms: _186  and  _187
REMARK   81  A    between atoms: _190  and  _192
REMARK   82  A    between atoms: _192  and  _193
REMARK   83  A    between atoms: _192  and  _195
REMARK   84  A    between atoms: _195  and  _196
REMARK   85  A    between atoms: _201  and  _203
REMARK   86  A    between atoms: _203  and  _204
REMARK   87  A    between atoms: _203  and  _206
REMARK   88  A    between atoms: _206  and  _207
REMARK   89  A    between atoms: _210  and  _212
REMARK   90  A    between atoms: _212  and  _213
REMARK   91  A    between atoms: _212  and  _215
REMARK   92  A    between atoms: _215  and  _216
REMARK   93  A    between atoms: _219  and  _221
REMARK   94  A    between atoms: _221  and  _222
REMARK   95  A    between atoms: _224  and  _226
REMARK   96  A    between atoms: _226  and  _227
REMARK   97  A    between atoms: _226  and  _229
REMARK   98  A    between atoms: _229  and  _230
REMARK   99  A    between atoms: _230  and  _231
REMARK  100  A    between atoms: _231  and  _232
REMARK  101  A    between atoms: _241  and  _243
REMARK  102  A    between atoms: _243  and  _244
REMARK  103  A    between atoms: _243  and  _246
REMARK  104  A    between atoms: _246  and  _247
REMARK  105  A    between atoms: _252  and  _254
REMARK  106  A    between atoms: _254  and  _255
REMARK  107  A    between atoms: _254  and  _257
REMARK  108  A    between atoms: _257  and  _258
REMARK  109  A    between atoms: _258  and  _259
REMARK  110  A    between atoms: _259  and  _260
REMARK  111  A    between atoms: _269  and  _271
REMARK  112  A    between atoms: _271  and  _272
REMARK  113  A    between atoms: _271  and  _274
REMARK  114  A    between atoms: _274  and  _275
REMARK  115  A    between atoms: _278  and  _280
REMARK  116  A    between atoms: _280  and  _281
REMARK  117  A    between atoms: _280  and  _283
REMARK  118  A    between atoms: _283  and  _284
REMARK  119  A    between atoms: _287  and  _289
REMARK  120  A    between atoms: _289  and  _290
REMARK  121  A    between atoms: _289  and  _292
REMARK  122  A    between atoms: _292  and  _293
REMARK  123  A    between atoms: _296  and  _298
REMARK  124  A    between atoms: _298  and  _299
REMARK  125  A    between atoms: _298  and  _301
REMARK  126  A    between atoms: _301  and  _302
REMARK  127  A    between atoms: _305  and  _307
REMARK  128  A    between atoms: _307  and  _308
REMARK  129  A    between atoms: _310  and  _312
REMARK  130  A    between atoms: _312  and  _313
REMARK  131  A    between atoms: _316  and  _318
REMARK  132  A    between atoms: _318  and  _319
REMARK  133  A    between atoms: _318  and  _321
REMARK  134  A    between atoms: _321  and  _322
REMARK  135  A    between atoms: _325  and  _327
REMARK  136  A    between atoms: _327  and  _328
REMARK  137  A    between atoms: _327  and  _330
REMARK  138  A    between atoms: _330  and  _331
REMARK  139  A    between atoms: _334  and  _336
REMARK  140  A    between atoms: _336  and  _337
REMARK  141  A    between atoms: _336  and  _339
REMARK  142  A    between atoms: _339  and  _340
REMARK  143  A    between atoms: _343  and  _345
REMARK  144  A    between atoms: _345  and  _346
REMARK  145  A    between atoms: _345  and  _348
REMARK  146  A    between atoms: _348  and  _349
REMARK  147  A    between atoms: _352  and  _354
REMARK  148  A    between atoms: _354  and  _355
REMARK  149  A    between atoms: _354  and  _357
REMARK  150  A    between atoms: _357  and  _358
REMARK  151  A    between atoms: _358  and  _359
REMARK  152  A    between atoms: _361  and  _363
REMARK  153  A    between atoms: _363  and  _364
REMARK  154  A    between atoms: _363  and  _366
REMARK  155  A    between atoms: _369  and  _371
REMARK  156  A    between atoms: _371  and  _372
REMARK  157  A    between atoms: _374  and  _376
REMARK  158  A    between atoms: _376  and  _377
REMARK  159  A    between atoms: _379  and  _381
REMARK  160  A    between atoms: _381  and  _382
REMARK  161  A    between atoms: _381  and  _384
REMARK  162  A    between atoms: _384  and  _385
REMARK  163  A    between atoms: _388  and  _390
REMARK  164  A    between atoms: _390  and  _391
REMARK  165  A    between atoms: _393  and  _395
REMARK  166  A    between atoms: _395  and  _396
REMARK  167  A    between atoms: _398  and  _400
REMARK  168  A    between atoms: _400  and  _401
REMARK  169  A    between atoms: _400  and  _403
REMARK  170  A    between atoms: _403  and  _404
REMARK  171  A    between atoms: _404  and  _405
REMARK  172  A    between atoms: _407  and  _409
REMARK  173  A    between atoms: _409  and  _410
REMARK  174  A    between atoms: _409  and  _412
REMARK  175  A    between atoms: _412  and  _413
REMARK  176  A    between atoms: _417  and  _418
REMARK  177  A    between atoms: _423  and  _425
REMARK  178  A    between atoms: _425  and  _426
REMARK  179  A    between atoms: _425  and  _428
REMARK  180  A    between atoms: _428  and  _429
REMARK  181  A    between atoms: _433  and  _434
REMARK  182  A    between atoms: _439  and  _441
REMARK  183  A    between atoms: _441  and  _442
REMARK  184  A    between atoms: _441  and  _444
REMARK  185  A    between atoms: _444  and  _445
REMARK  186  A    between atoms: _448  and  _450
REMARK  187  A    between atoms: _450  and  _451
REMARK  188  A    between atoms: _450  and  _453
REMARK  189  A    between atoms: _453  and  _454
REMARK  190  A    between atoms: _459  and  _461
REMARK  191  A    between atoms: _461  and  _462
REMARK  192  A    between atoms: _461  and  _464
REMARK  193  A    between atoms: _464  and  _465
REMARK  194  A    between atoms: _468  and  _470
REMARK  195  A    between atoms: _470  and  _471
REMARK  196  A    between atoms: _470  and  _473
REMARK  197  A    between atoms: _473  and  _474
REMARK  198  A    between atoms: _477  and  _479
REMARK  199  A    between atoms: _479  and  _480
REMARK  200  A    between atoms: _482  and  _484
REMARK  201  A    between atoms: _484  and  _485
REMARK  202  A    between atoms: _484  and  _487
REMARK  203  A    between atoms: _487  and  _488
REMARK  204  A    between atoms: _488  and  _489
REMARK  205  A    between atoms: _489  and  _490
REMARK  206  A    between atoms: _499  and  _501
REMARK  207  A    between atoms: _501  and  _502
REMARK  208  A    between atoms: _501  and  _504
REMARK  209  A    between atoms: _504  and  _505
REMARK                            x       y       z     vdW  Elec       q    Type
REMARK                         _______ _______ _______ _____ _____    ______ ____
ROOT
ATOM      1  O   HOH     1     -12.732  17.219  13.907  0.00  0.00    +0.000 OA
ENDROOT
TORSDOF 0
REMARK  Name = ../refined-set-2016/3ttp/3ttp_pocket.pdb
REMARK  209 active torsions:
REMARK  status: ('A' for Active; 'I' for Inactive)
REMARK    1  A    between atoms: _1  and  _3
REMARK    2  A    between atoms: _3  and  _4
REMARK    3  A    between atoms: _3  and  _6
REMARK    4  A    between atoms: _6  and  _7
REMARK    5  A    between atoms: _7  and  _8
REMARK    6  A    between atoms: _8  and  _9
REMARK    7  A    between atoms: _18  and  _20
REMARK    8  A    between atoms: _20  and  _21
REMARK    9  A    between atoms: _20  and  _23
REMARK   10  A    between atoms: _23  and  _24
REMARK   11  A    between atoms: _27  and  _29
REMARK   12  A    between atoms: _29  and  _30
REMARK   13  A    between atoms: _29  and  _32
REMARK   14  A    between atoms: _32  and  _33
REMARK   15  A    between atoms: _36  and  _38
REMARK   16  A    between atoms: _38  and  _39
REMARK   17  A    between atoms: _38  and  _41
REMARK   18  A    between atoms: _41  and  _42
REMARK   19  A    between atoms: _45  and  _47
REMARK   20  A    between atoms: _47  and  _48
REMARK   21  A    between atoms: _47  and  _50
REMARK   22  A    between atoms: _50  and  _51
REMARK   23  A    between atoms: _54  and  _56
REMARK   24  A    between atoms: _56  and  _57
REMARK   25  A    between atoms: _59  and  _61
REMARK   26  A    between atoms: _61  and  _62
REMARK   27  A    between atoms: _65  and  _67
REMARK   28  A    between atoms: _67  and  _68
REMARK   29  A    between atoms: _67  and  _70
REMARK   30  A    between atoms: _70  and  _71
REMARK   31  A    between atoms: _74  and  _76
REMARK   32  A    between atoms: _76  and  _77
REMARK   33  A    between atoms: _76  and  _79
REMARK   34  A    between atoms: _79  and  _80
REMARK   35  A    between atoms: _83  and  _85
REMARK   36  A    between atoms: _85  and  _86
REMARK   37  A    between atoms: _85  and  _88
REMARK   38  A    between atoms: _88  and  _89
REMARK   39  A    between atoms: _92  and  _94
REMARK   40  A    between atoms: _94  and  _95
REMARK   41  A    between atoms: _94  and  _97
REMARK   42  A    between atoms: _97  and  _98
REMARK   43  A    between atoms: _101  and  _103
REMARK   44  A    between atoms: _103  and  _104
REMARK   45  A    between atoms: _103  and  _106
REMARK   46  A    between atoms: _106  and  _107
REMARK   47  A    between atoms: _107  and  _108
REMARK   48  A    between atoms: _110  and  _112
REMARK   49  A    between atoms: _112  and  _113
REMARK   50  A    between atoms: _112  and  _115
REMARK   51  A    between atoms: _118  and  _120
REMARK   52  A    between atoms: _120  and  _121
REMARK   53  A    between atoms: _123  and  _125
REMARK   54  A    between atoms: _125  and  _126
REMARK   55  A    between atoms: _128  and  _130
REMARK   56  A    between atoms: _130  and  _131
REMARK   57  A    between atoms: _130  and  _133
REMARK   58  A    between atoms: _133  and  _134
REMARK   59  A    between atoms: _137  and  _139
REMARK   60  A    between atoms: _139  and  _140
REMARK   61  A    between atoms: _142  and  _144
REMARK   62  A    between atoms: _144  and  _145
REMARK   63  A    between atoms: _147  and  _149
REMARK   64  A    between atoms: _149  and  _150
REMARK   65  A    between atoms: _149  and  _152
REMARK   66  A    between atoms: _152  and  _153
REMARK   67  A    between atoms: _153  and  _154
REMARK   68  A    between atoms: _156  and  _158
REMARK   69  A    between atoms: _158  and  _159
REMARK   70  A    between atoms: _158  and  _161
REMARK   71  A    between atoms: _161  and  _162
REMARK   72  A    between atoms: _165  and  _167
REMARK   73  A    between atoms: _167  and  _168
REMARK   74  A    between atoms: _167  and  _170
REMARK   75  A    between atoms: _170  and  _171
REMARK   76  A    between atoms: _175  and  _176
REMARK   77  A    between atoms: _181  and  _183
REMARK   78  A    between atoms: _183  and  _184
REMARK   79  A    between atoms: _183  and  _186
REMARK   80  A    between atoms: _186  and  _187
REMARK   81  A    between atoms: _190  and  _192
REMARK   82  A    between atoms: _192  and  _193
REMARK   83  A    between atoms: _192  and  _195
REMARK   84  A    between atoms: _195  and  _196
REMARK   85  A    between atoms: _201  and  _203
REMARK   86  A    between atoms: _203  and  _204
REMARK   87  A    between atoms: _203  and  _206
REMARK   88  A    between atoms: _206  and  _207
REMARK   89  A    between atoms: _210  and  _212
REMARK   90  A    between atoms: _212  and  _213
REMARK   91  A    between atoms: _212  and  _215
REMARK   92  A    between atoms: _215  and  _216
REMARK   93  A    between atoms: _219  and  _221
REMARK   94  A    between atoms: _221  and  _222
REMARK   95  A    between atoms: _224  and  _226
REMARK   96  A    between atoms: _226  and  _227
REMARK   97  A    between atoms: _226  and  _229
REMARK   98  A    between atoms: _229  and  _230
REMARK   99  A    between atoms: _230  and  _231
REMARK  100  A    between atoms: _231  and  _232
REMARK  101  A    between atoms: _241  and  _243
REMARK  102  A    between atoms: _243  and  _244
REMARK  103  A    between atoms: _243  and  _246
REMARK  104  A    between atoms: _246  and  _247
REMARK  105  A    between atoms: _252  and  _254
REMARK  106  A    between atoms: _254  and  _255
REMARK  107  A    between atoms: _254  and  _257
REMARK  108  A    between atoms: _257  and  _258
REMARK  109  A    between atoms: _258  and  _259
REMARK  110  A    between atoms: _259  and  _260
REMARK  111  A    between atoms: _269  and  _271
REMARK  112  A    between atoms: _271  and  _272
REMARK  113  A    between atoms: _271  and  _274
REMARK  114  A    between atoms: _274  and  _275
REMARK  115  A    between atoms: _278  and  _280
REMARK  116  A    between atoms: _280  and  _281
REMARK  117  A    between atoms: _280  and  _283
REMARK  118  A    between atoms: _283  and  _284
REMARK  119  A    between atoms: _287  and  _289
REMARK  120  A    between atoms: _289  and  _290
REMARK  121  A    between atoms: _289  and  _292
REMARK  122  A    between atoms: _292  and  _293
REMARK  123  A    between atoms: _296  and  _298
REMARK  124  A    between atoms: _298  and  _299
REMARK  125  A    between atoms: _298  and  _301
REMARK  126  A    between atoms: _301  and  _302
REMARK  127  A    between atoms: _305  and  _307
REMARK  128  A    between atoms: _307  and  _308
REMARK  129  A    between atoms: _310  and  _312
REMARK  130  A    between atoms: _312  and  _313
REMARK  131  A    between atoms: _316  and  _318
REMARK  132  A    between atoms: _318  and  _319
REMARK  133  A    between atoms: _318  and  _321
REMARK  134  A    between atoms: _321  and  _322
REMARK  135  A    between atoms: _325  and  _327
REMARK  136  A    between atoms: _327  and  _328
REMARK  137  A    between atoms: _327  and  _330
REMARK  138  A    between atoms: _330  and  _331
REMARK  139  A    between atoms: _334  and  _336
REMARK  140  A    between atoms: _336  and  _337
REMARK  141  A    between atoms: _336  and  _339
REMARK  142  A    between atoms: _339  and  _340
REMARK  143  A    between atoms: _343  and  _345
REMARK  144  A    between atoms: _345  and  _346
REMARK  145  A    between atoms: _345  and  _348
REMARK  146  A    between atoms: _348  and  _349
REMARK  147  A    between atoms: _352  and  _354
REMARK  148  A    between atoms: _354  and  _355
REMARK  149  A    between atoms: _354  and  _357
REMARK  150  A    between atoms: _357  and  _358
REMARK  151  A    between atoms: _358  and  _359
REMARK  152  A    between atoms: _361  and  _363
REMARK  153  A    between atoms: _363  and  _364
REMARK  154  A    between atoms: _363  and  _366
REMARK  155  A    between atoms: _369  and  _371
REMARK  156  A    between atoms: _371  and  _372
REMARK  157  A    between atoms: _374  and  _376
REMARK  158  A    between atoms: _376  and  _377
REMARK  159  A    between atoms: _379  and  _381
REMARK  160  A    between atoms: _381  and  _382
REMARK  161  A    between atoms: _381  and  _384
REMARK  162  A    between atoms: _384  and  _385
REMARK  163  A    between atoms: _388  and  _390
REMARK  164  A    between atoms: _390  and  _391
REMARK  165  A    between atoms: _393  and  _395
REMARK  166  A    between atoms: _395  and  _396
REMARK  167  A    between atoms: _398  and  _400
REMARK  168  A    between atoms: _400  and  _401
REMARK  169  A    between atoms: _400  and  _403
REMARK  170  A    between atoms: _403  and  _404
REMARK  171  A    between atoms: _404  and  _405
REMARK  172  A    between atoms: _407  and  _409
REMARK  173  A    between atoms: _409  and  _410
REMARK  174  A    between atoms: _409  and  _412
REMARK  175  A    between atoms: _412  and  _413
REMARK  176  A    between atoms: _417  and  _418
REMARK  177  A    between atoms: _423  and  _425
REMARK  178  A    between atoms: _425  and  _426
REMARK  179  A    between atoms: _425  and  _428
REMARK  180  A    between atoms: _428  and  _429
REMARK  181  A    between atoms: _433  and  _434
REMARK  182  A    between atoms: _439  and  _441
REMARK  183  A    between atoms: _441  and  _442
REMARK  184  A    between atoms: _441  and  _444
REMARK  185  A    between atoms: _444  and  _445
REMARK  186  A    between atoms: _448  and  _450
REMARK  187  A    between atoms: _450  and  _451
REMARK  188  A    between atoms: _450  and  _453
REMARK  189  A    between atoms: _453  and  _454
REMARK  190  A    between atoms: _459  and  _461
REMARK  191  A    between atoms: _461  and  _462
REMARK  192  A    between atoms: _461  and  _464
REMARK  193  A    between atoms: _464  and  _465
REMARK  194  A    between atoms: _468  and  _470
REMARK  195  A    between atoms: _470  and  _471
REMARK  196  A    between atoms: _470  and  _473
REMARK  197  A    between atoms: _473  and  _474
REMARK  198  A    between atoms: _477  and  _479
REMARK  199  A    between atoms: _479  and  _480
REMARK  200  A    between atoms: _482  and  _484
REMARK  201  A    between atoms: _484  and  _485
REMARK  202  A    between atoms: _484  and  _487
REMARK  203  A    between atoms: _487  and  _488
REMARK  204  A    between atoms: _488  and  _489
REMARK  205  A    between atoms: _489  and  _490
REMARK  206  A    between atoms: _499  and  _501
REMARK  207  A    between atoms: _501  and  _502
REMARK  208  A    between atoms: _501  and  _504
REMARK  209  A    between atoms: _504  and  _505
REMARK                            x       y       z     vdW  Elec       q    Type
REMARK                         _______ _______ _______ _____ _____    ______ ____
ROOT
ATOM      1  O   HOH     1      -7.914  23.872  22.695  0.00  0.00    +0.000 OA
ENDROOT
TORSDOF 0
REMARK  Name = ../refined-set-2016/3ttp/3ttp_pocket.pdb
REMARK  209 active torsions:
REMARK  status: ('A' for Active; 'I' for Inactive)
REMARK    1  A    between atoms: _1  and  _3
REMARK    2  A    between atoms: _3  and  _4
REMARK    3  A    between atoms: _3  and  _6
REMARK    4  A    between atoms: _6  and  _7
REMARK    5  A    between atoms: _7  and  _8
REMARK    6  A    between atoms: _8  and  _9
REMARK    7  A    between atoms: _18  and  _20
REMARK    8  A    between atoms: _20  and  _21
REMARK    9  A    between atoms: _20  and  _23
REMARK   10  A    between atoms: _23  and  _24
REMARK   11  A    between atoms: _27  and  _29
REMARK   12  A    between atoms: _29  and  _30
REMARK   13  A    between atoms: _29  and  _32
REMARK   14  A    between atoms: _32  and  _33
REMARK   15  A    between atoms: _36  and  _38
REMARK   16  A    between atoms: _38  and  _39
REMARK   17  A    between atoms: _38  and  _41
REMARK   18  A    between atoms: _41  and  _42
REMARK   19  A    between atoms: _45  and  _47
REMARK   20  A    between atoms: _47  and  _48
REMARK   21  A    between atoms: _47  and  _50
REMARK   22  A    between atoms: _50  and  _51
REMARK   23  A    between atoms: _54  and  _56
REMARK   24  A    between atoms: _56  and  _57
REMARK   25  A    between atoms: _59  and  _61
REMARK   26  A    between atoms: _61  and  _62
REMARK   27  A    between atoms: _65  and  _67
REMARK   28  A    between atoms: _67  and  _68
REMARK   29  A    between atoms: _67  and  _70
REMARK   30  A    between atoms: _70  and  _71
REMARK   31  A    between atoms: _74  and  _76
REMARK   32  A    between atoms: _76  and  _77
REMARK   33  A    between atoms: _76  and  _79
REMARK   34  A    between atoms: _79  and  _80
REMARK   35  A    between atoms: _83  and  _85
REMARK   36  A    between atoms: _85  and  _86
REMARK   37  A    between atoms: _85  and  _88
REMARK   38  A    between atoms: _88  and  _89
REMARK   39  A    between atoms: _92  and  _94
REMARK   40  A    between atoms: _94  and  _95
REMARK   41  A    between atoms: _94  and  _97
REMARK   42  A    between atoms: _97  and  _98
REMARK   43  A    between atoms: _101  and  _103
REMARK   44  A    between atoms: _103  and  _104
REMARK   45  A    between atoms: _103  and  _106
REMARK   46  A    between atoms: _106  and  _107
REMARK   47  A    between atoms: _107  and  _108
REMARK   48  A    between atoms: _110  and  _112
REMARK   49  A    between atoms: _112  and  _113
REMARK   50  A    between atoms: _112  and  _115
REMARK   51  A    between atoms: _118  and  _120
REMARK   52  A    between atoms: _120  and  _121
REMARK   53  A    between atoms: _123  and  _125
REMARK   54  A    between atoms: _125  and  _126
REMARK   55  A    between atoms: _128  and  _130
REMARK   56  A    between atoms: _130  and  _131
REMARK   57  A    between atoms: _130  and  _133
REMARK   58  A    between atoms: _133  and  _134
REMARK   59  A    between atoms: _137  and  _139
REMARK   60  A    between atoms: _139  and  _140
REMARK   61  A    between atoms: _142  and  _144
REMARK   62  A    between atoms: _144  and  _145
REMARK   63  A    between atoms: _147  and  _149
REMARK   64  A    between atoms: _149  and  _150
REMARK   65  A    between atoms: _149  and  _152
REMARK   66  A    between atoms: _152  and  _153
REMARK   67  A    between atoms: _153  and  _154
REMARK   68  A    between atoms: _156  and  _158
REMARK   69  A    between atoms: _158  and  _159
REMARK   70  A    between atoms: _158  and  _161
REMARK   71  A    between atoms: _161  and  _162
REMARK   72  A    between atoms: _165  and  _167
REMARK   73  A    between atoms: _167  and  _168
REMARK   74  A    between atoms: _167  and  _170
REMARK   75  A    between atoms: _170  and  _171
REMARK   76  A    between atoms: _175  and  _176
REMARK   77  A    between atoms: _181  and  _183
REMARK   78  A    between atoms: _183  and  _184
REMARK   79  A    between atoms: _183  and  _186
REMARK   80  A    between atoms: _186  and  _187
REMARK   81  A    between atoms: _190  and  _192
REMARK   82  A    between atoms: _192  and  _193
REMARK   83  A    between atoms: _192  and  _195
REMARK   84  A    between atoms: _195  and  _196
REMARK   85  A    between atoms: _201  and  _203
REMARK   86  A    between atoms: _203  and  _204
REMARK   87  A    between atoms: _203  and  _206
REMARK   88  A    between atoms: _206  and  _207
REMARK   89  A    between atoms: _210  and  _212
REMARK   90  A    between atoms: _212  and  _213
REMARK   91  A    between atoms: _212  and  _215
REMARK   92  A    between atoms: _215  and  _216
REMARK   93  A    between atoms: _219  and  _221
REMARK   94  A    between atoms: _221  and  _222
REMARK   95  A    between atoms: _224  and  _226
REMARK   96  A    between atoms: _226  and  _227
REMARK   97  A    between atoms: _226  and  _229
REMARK   98  A    between atoms: _229  and  _230
REMARK   99  A    between atoms: _230  and  _231
REMARK  100  A    between atoms: _231  and  _232
REMARK  101  A    between atoms: _241  and  _243
REMARK  102  A    between atoms: _243  and  _244
REMARK  103  A    between atoms: _243  and  _246
REMARK  104  A    between atoms: _246  and  _247
REMARK  105  A    between atoms: _252  and  _254
REMARK  106  A    between atoms: _254  and  _255
REMARK  107  A    between atoms: _254  and  _257
REMARK  108  A    between atoms: _257  and  _258
REMARK  109  A    between atoms: _258  and  _259
REMARK  110  A    between atoms: _259  and  _260
REMARK  111  A    between atoms: _269  and  _271
REMARK  112  A    between atoms: _271  and  _272
REMARK  113  A    between atoms: _271  and  _274
REMARK  114  A    between atoms: _274  and  _275
REMARK  115  A    between atoms: _278  and  _280
REMARK  116  A    between atoms: _280  and  _281
REMARK  117  A    between atoms: _280  and  _283
REMARK  118  A    between atoms: _283  and  _284
REMARK  119  A    between atoms: _287  and  _289
REMARK  120  A    between atoms: _289  and  _290
REMARK  121  A    between atoms: _289  and  _292
REMARK  122  A    between atoms: _292  and  _293
REMARK  123  A    between atoms: _296  and  _298
REMARK  124  A    between atoms: _298  and  _299
REMARK  125  A    between atoms: _298  and  _301
REMARK  126  A    between atoms: _301  and  _302
REMARK  127  A    between atoms: _305  and  _307
REMARK  128  A    between atoms: _307  and  _308
REMARK  129  A    between atoms: _310  and  _312
REMARK  130  A    between atoms: _312  and  _313
REMARK  131  A    between atoms: _316  and  _318
REMARK  132  A    between atoms: _318  and  _319
REMARK  133  A    between atoms: _318  and  _321
REMARK  134  A    between atoms: _321  and  _322
REMARK  135  A    between atoms: _325  and  _327
REMARK  136  A    between atoms: _327  and  _328
REMARK  137  A    between atoms: _327  and  _330
REMARK  138  A    between atoms: _330  and  _331
REMARK  139  A    between atoms: _334  and  _336
REMARK  140  A    between atoms: _336  and  _337
REMARK  141  A    between atoms: _336  and  _339
REMARK  142  A    between atoms: _339  and  _340
REMARK  143  A    between atoms: _343  and  _345
REMARK  144  A    between atoms: _345  and  _346
REMARK  145  A    between atoms: _345  and  _348
REMARK  146  A    between atoms: _348  and  _349
REMARK  147  A    between atoms: _352  and  _354
REMARK  148  A    between atoms: _354  and  _355
REMARK  149  A    between atoms: _354  and  _357
REMARK  150  A    between atoms: _357  and  _358
REMARK  151  A    between atoms: _358  and  _359
REMARK  152  A    between atoms: _361  and  _363
REMARK  153  A    between atoms: _363  and  _364
REMARK  154  A    between atoms: _363  and  _366
REMARK  155  A    between atoms: _369  and  _371
REMARK  156  A    between atoms: _371  and  _372
REMARK  157  A    between atoms: _374  and  _376
REMARK  158  A    between atoms: _376  and  _377
REMARK  159  A    between atoms: _379  and  _381
REMARK  160  A    between atoms: _381  and  _382
REMARK  161  A    between atoms: _381  and  _384
REMARK  162  A    between atoms: _384  and  _385
REMARK  163  A    between atoms: _388  and  _390
REMARK  164  A    between atoms: _390  and  _391
REMARK  165  A    between atoms: _393  and  _395
REMARK  166  A    between atoms: _395  and  _396
REMARK  167  A    between atoms: _398  and  _400
REMARK  168  A    between atoms: _400  and  _401
REMARK  169  A    between atoms: _400  and  _403
REMARK  170  A    between atoms: _403  and  _404
REMARK  171  A    between atoms: _404  and  _405
REMARK  172  A    between atoms: _407  and  _409
REMARK  173  A    between atoms: _409  and  _410
REMARK  174  A    between atoms: _409  and  _412
REMARK  175  A    between atoms: _412  and  _413
REMARK  176  A    between atoms: _417  and  _418
REMARK  177  A    between atoms: _423  and  _425
REMARK  178  A    between atoms: _425  and  _426
REMARK  179  A    between atoms: _425  and  _428
REMARK  180  A    between atoms: _428  and  _429
REMARK  181  A    between atoms: _433  and  _434
REMARK  182  A    between atoms: _439  and  _441
REMARK  183  A    between atoms: _441  and  _442
REMARK  184  A    between atoms: _441  and  _444
REMARK  185  A    between atoms: _444  and  _445
REMARK  186  A    between atoms: _448  and  _450
REMARK  187  A    between atoms: _450  and  _451
REMARK  188  A    between atoms: _450  and  _453
REMARK  189  A    between atoms: _453  and  _454
REMARK  190  A    between atoms: _459  and  _461
REMARK  191  A    between atoms: _461  and  _462
REMARK  192  A    between atoms: _461  and  _464
REMARK  193  A    between atoms: _464  and  _465
REMARK  194  A    between atoms: _468  and  _470
REMARK  195  A    between atoms: _470  and  _471
REMARK  196  A    between atoms: _470  and  _473
REMARK  197  A    between atoms: _473  and  _474
REMARK  198  A    between atoms: _477  and  _479
REMARK  199  A    between atoms: _479  and  _480
REMARK  200  A    between atoms: _482  and  _484
REMARK  201  A    between atoms: _484  and  _485
REMARK  202  A    between atoms: _484  and  _487
REMARK  203  A    between atoms: _487  and  _488
REMARK  204  A    between atoms: _488  and  _489
REMARK  205  A    between atoms: _489  and  _490
REMARK  206  A    between atoms: _499  and  _501
REMARK  207  A    between atoms: _501  and  _502
REMARK  208  A    between atoms: _501  and  _504
REMARK  209  A    between atoms: _504  and  _505
REMARK                            x       y       z     vdW  Elec       q    Type
REMARK                         _______ _______ _______ _____ _____    ______ ____
ROOT
ATOM      1  O   HOH     1       1.356  19.462  23.772  0.00  0.00    +0.000 OA
ENDROOT
TORSDOF 0
REMARK  Name = ../refined-set-2016/3ttp/3ttp_pocket.pdb
REMARK  209 active torsions:
REMARK  status: ('A' for Active; 'I' for Inactive)
REMARK    1  A    between atoms: _1  and  _3
REMARK    2  A    between atoms: _3  and  _4
REMARK    3  A    between atoms: _3  and  _6
REMARK    4  A    between atoms: _6  and  _7
REMARK    5  A    between atoms: _7  and  _8
REMARK    6  A    between atoms: _8  and  _9
REMARK    7  A    between atoms: _18  and  _20
REMARK    8  A    between atoms: _20  and  _21
REMARK    9  A    between atoms: _20  and  _23
REMARK   10  A    between atoms: _23  and  _24
REMARK   11  A    between atoms: _27  and  _29
REMARK   12  A    between atoms: _29  and  _30
REMARK   13  A    between atoms: _29  and  _32
REMARK   14  A    between atoms: _32  and  _33
REMARK   15  A    between atoms: _36  and  _38
REMARK   16  A    between atoms: _38  and  _39
REMARK   17  A    between atoms: _38  and  _41
REMARK   18  A    between atoms: _41  and  _42
REMARK   19  A    between atoms: _45  and  _47
REMARK   20  A    between atoms: _47  and  _48
REMARK   21  A    between atoms: _47  and  _50
REMARK   22  A    between atoms: _50  and  _51
REMARK   23  A    between atoms: _54  and  _56
REMARK   24  A    between atoms: _56  and  _57
REMARK   25  A    between atoms: _59  and  _61
REMARK   26  A    between atoms: _61  and  _62
REMARK   27  A    between atoms: _65  and  _67
REMARK   28  A    between atoms: _67  and  _68
REMARK   29  A    between atoms: _67  and  _70
REMARK   30  A    between atoms: _70  and  _71
REMARK   31  A    between atoms: _74  and  _76
REMARK   32  A    between atoms: _76  and  _77
REMARK   33  A    between atoms: _76  and  _79
REMARK   34  A    between atoms: _79  and  _80
REMARK   35  A    between atoms: _83  and  _85
REMARK   36  A    between atoms: _85  and  _86
REMARK   37  A    between atoms: _85  and  _88
REMARK   38  A    between atoms: _88  and  _89
REMARK   39  A    between atoms: _92  and  _94
REMARK   40  A    between atoms: _94  and  _95
REMARK   41  A    between atoms: _94  and  _97
REMARK   42  A    between atoms: _97  and  _98
REMARK   43  A    between atoms: _101  and  _103
REMARK   44  A    between atoms: _103  and  _104
REMARK   45  A    between atoms: _103  and  _106
REMARK   46  A    between atoms: _106  and  _107
REMARK   47  A    between atoms: _107  and  _108
REMARK   48  A    between atoms: _110  and  _112
REMARK   49  A    between atoms: _112  and  _113
REMARK   50  A    between atoms: _112  and  _115
REMARK   51  A    between atoms: _118  and  _120
REMARK   52  A    between atoms: _120  and  _121
REMARK   53  A    between atoms: _123  and  _125
REMARK   54  A    between atoms: _125  and  _126
REMARK   55  A    between atoms: _128  and  _130
REMARK   56  A    between atoms: _130  and  _131
REMARK   57  A    between atoms: _130  and  _133
REMARK   58  A    between atoms: _133  and  _134
REMARK   59  A    between atoms: _137  and  _139
REMARK   60  A    between atoms: _139  and  _140
REMARK   61  A    between atoms: _142  and  _144
REMARK   62  A    between atoms: _144  and  _145
REMARK   63  A    between atoms: _147  and  _149
REMARK   64  A    between atoms: _149  and  _150
REMARK   65  A    between atoms: _149  and  _152
REMARK   66  A    between atoms: _152  and  _153
REMARK   67  A    between atoms: _153  and  _154
REMARK   68  A    between atoms: _156  and  _158
REMARK   69  A    between atoms: _158  and  _159
REMARK   70  A    between atoms: _158  and  _161
REMARK   71  A    between atoms: _161  and  _162
REMARK   72  A    between atoms: _165  and  _167
REMARK   73  A    between atoms: _167  and  _168
REMARK   74  A    between atoms: _167  and  _170
REMARK   75  A    between atoms: _170  and  _171
REMARK   76  A    between atoms: _175  and  _176
REMARK   77  A    between atoms: _181  and  _183
REMARK   78  A    between atoms: _183  and  _184
REMARK   79  A    between atoms: _183  and  _186
REMARK   80  A    between atoms: _186  and  _187
REMARK   81  A    between atoms: _190  and  _192
REMARK   82  A    between atoms: _192  and  _193
REMARK   83  A    between atoms: _192  and  _195
REMARK   84  A    between atoms: _195  and  _196
REMARK   85  A    between atoms: _201  and  _203
REMARK   86  A    between atoms: _203  and  _204
REMARK   87  A    between atoms: _203  and  _206
REMARK   88  A    between atoms: _206  and  _207
REMARK   89  A    between atoms: _210  and  _212
REMARK   90  A    between atoms: _212  and  _213
REMARK   91  A    between atoms: _212  and  _215
REMARK   92  A    between atoms: _215  and  _216
REMARK   93  A    between atoms: _219  and  _221
REMARK   94  A    between atoms: _221  and  _222
REMARK   95  A    between atoms: _224  and  _226
REMARK   96  A    between atoms: _226  and  _227
REMARK   97  A    between atoms: _226  and  _229
REMARK   98  A    between atoms: _229  and  _230
REMARK   99  A    between atoms: _230  and  _231
REMARK  100  A    between atoms: _231  and  _232
REMARK  101  A    between atoms: _241  and  _243
REMARK  102  A    between atoms: _243  and  _244
REMARK  103  A    between atoms: _243  and  _246
REMARK  104  A    between atoms: _246  and  _247
REMARK  105  A    between atoms: _252  and  _254
REMARK  106  A    between atoms: _254  and  _255
REMARK  107  A    between atoms: _254  and  _257
REMARK  108  A    between atoms: _257  and  _258
REMARK  109  A    between atoms: _258  and  _259
REMARK  110  A    between atoms: _259  and  _260
REMARK  111  A    between atoms: _269  and  _271
REMARK  112  A    between atoms: _271  and  _272
REMARK  113  A    between atoms: _271  and  _274
REMARK  114  A    between atoms: _274  and  _275
REMARK  115  A    between atoms: _278  and  _280
REMARK  116  A    between atoms: _280  and  _281
REMARK  117  A    between atoms: _280  and  _283
REMARK  118  A    between atoms: _283  and  _284
REMARK  119  A    between atoms: _287  and  _289
REMARK  120  A    between atoms: _289  and  _290
REMARK  121  A    between atoms: _289  and  _292
REMARK  122  A    between atoms: _292  and  _293
REMARK  123  A    between atoms: _296  and  _298
REMARK  124  A    between atoms: _298  and  _299
REMARK  125  A    between atoms: _298  and  _301
REMARK  126  A    between atoms: _301  and  _302
REMARK  127  A    between atoms: _305  and  _307
REMARK  128  A    between atoms: _307  and  _308
REMARK  129  A    between atoms: _310  and  _312
REMARK  130  A    between atoms: _312  and  _313
REMARK  131  A    between atoms: _316  and  _318
REMARK  132  A    between atoms: _318  and  _319
REMARK  133  A    between atoms: _318  and  _321
REMARK  134  A    between atoms: _321  and  _322
REMARK  135  A    between atoms: _325  and  _327
REMARK  136  A    between atoms: _327  and  _328
REMARK  137  A    between atoms: _327  and  _330
REMARK  138  A    between atoms: _330  and  _331
REMARK  139  A    between atoms: _334  and  _336
REMARK  140  A    between atoms: _336  and  _337
REMARK  141  A    between atoms: _336  and  _339
REMARK  142  A    between atoms: _339  and  _340
REMARK  143  A    between atoms: _343  and  _345
REMARK  144  A    between atoms: _345  and  _346
REMARK  145  A    between atoms: _345  and  _348
REMARK  146  A    between atoms: _348  and  _349
REMARK  147  A    between atoms: _352  and  _354
REMARK  148  A    between atoms: _354  and  _355
REMARK  149  A    between atoms: _354  and  _357
REMARK  150  A    between atoms: _357  and  _358
REMARK  151  A    between atoms: _358  and  _359
REMARK  152  A    between atoms: _361  and  _363
REMARK  153  A    between atoms: _363  and  _364
REMARK  154  A    between atoms: _363  and  _366
REMARK  155  A    between atoms: _369  and  _371
REMARK  156  A    between atoms: _371  and  _372
REMARK  157  A    between atoms: _374  and  _376
REMARK  158  A    between atoms: _376  and  _377
REMARK  159  A    between atoms: _379  and  _381
REMARK  160  A    between atoms: _381  and  _382
REMARK  161  A    between atoms: _381  and  _384
REMARK  162  A    between atoms: _384  and  _385
REMARK  163  A    between atoms: _388  and  _390
REMARK  164  A    between atoms: _390  and  _391
REMARK  165  A    between atoms: _393  and  _395
REMARK  166  A    between atoms: _395  and  _396
REMARK  167  A    between atoms: _398  and  _400
REMARK  168  A    between atoms: _400  and  _401
REMARK  169  A    between atoms: _400  and  _403
REMARK  170  A    between atoms: _403  and  _404
REMARK  171  A    between atoms: _404  and  _405
REMARK  172  A    between atoms: _407  and  _409
REMARK  173  A    between atoms: _409  and  _410
REMARK  174  A    between atoms: _409  and  _412
REMARK  175  A    between atoms: _412  and  _413
REMARK  176  A    between atoms: _417  and  _418
REMARK  177  A    between atoms: _423  and  _425
REMARK  178  A    between atoms: _425  and  _426
REMARK  179  A    between atoms: _425  and  _428
REMARK  180  A    between atoms: _428  and  _429
REMARK  181  A    between atoms: _433  and  _434
REMARK  182  A    between atoms: _439  and  _441
REMARK  183  A    between atoms: _441  and  _442
REMARK  184  A    between atoms: _441  and  _444
REMARK  185  A    between atoms: _444  and  _445
REMARK  186  A    between atoms: _448  and  _450
REMARK  187  A    between atoms: _450  and  _451
REMARK  188  A    between atoms: _450  and  _453
REMARK  189  A    between atoms: _453  and  _454
REMARK  190  A    between atoms: _459  and  _461
REMARK  191  A    between atoms: _461  and  _462
REMARK  192  A    between atoms: _461  and  _464
REMARK  193  A    between atoms: _464  and  _465
REMARK  194  A    between atoms: _468  and  _470
REMARK  195  A    between atoms: _470  and  _471
REMARK  196  A    between atoms: _470  and  _473
REMARK  197  A    between atoms: _473  and  _474
REMARK  198  A    between atoms: _477  and  _479
REMARK  199  A    between atoms: _479  and  _480
REMARK  200  A    between atoms: _482  and  _484
REMARK  201  A    between atoms: _484  and  _485
REMARK  202  A    between atoms: _484  and  _487
REMARK  203  A    between atoms: _487  and  _488
REMARK  204  A    between atoms: _488  and  _489
REMARK  205  A    between atoms: _489  and  _490
REMARK  206  A    between atoms: _499  and  _501
REMARK  207  A    between atoms: _501  and  _502
REMARK  208  A    between atoms: _501  and  _504
REMARK  209  A    between atoms: _504  and  _505
REMARK                            x       y       z     vdW  Elec       q    Type
REMARK                         _______ _______ _______ _____ _____    ______ ____
ROOT
ATOM      1  O   HOH     1     -17.325   8.684  31.008  0.00  0.00    +0.000 OA
ENDROOT
TORSDOF 0
REMARK  Name = ../refined-set-2016/3ttp/3ttp_pocket.pdb
REMARK  209 active torsions:
REMARK  status: ('A' for Active; 'I' for Inactive)
REMARK    1  A    between atoms: _1  and  _3
REMARK    2  A    between atoms: _3  and  _4
REMARK    3  A    between atoms: _3  and  _6
REMARK    4  A    between atoms: _6  and  _7
REMARK    5  A    between atoms: _7  and  _8
REMARK    6  A    between atoms: _8  and  _9
REMARK    7  A    between atoms: _18  and  _20
REMARK    8  A    between atoms: _20  and  _21
REMARK    9  A    between atoms: _20  and  _23
REMARK   10  A    between atoms: _23  and  _24
REMARK   11  A    between atoms: _27  and  _29
REMARK   12  A    between atoms: _29  and  _30
REMARK   13  A    between atoms: _29  and  _32
REMARK   14  A    between atoms: _32  and  _33
REMARK   15  A    between atoms: _36  and  _38
REMARK   16  A    between atoms: _38  and  _39
REMARK   17  A    between atoms: _38  and  _41
REMARK   18  A    between atoms: _41  and  _42
REMARK   19  A    between atoms: _45  and  _47
REMARK   20  A    between atoms: _47  and  _48
REMARK   21  A    between atoms: _47  and  _50
REMARK   22  A    between atoms: _50  and  _51
REMARK   23  A    between atoms: _54  and  _56
REMARK   24  A    between atoms: _56  and  _57
REMARK   25  A    between atoms: _59  and  _61
REMARK   26  A    between atoms: _61  and  _62
REMARK   27  A    between atoms: _65  and  _67
REMARK   28  A    between atoms: _67  and  _68
REMARK   29  A    between atoms: _67  and  _70
REMARK   30  A    between atoms: _70  and  _71
REMARK   31  A    between atoms: _74  and  _76
REMARK   32  A    between atoms: _76  and  _77
REMARK   33  A    between atoms: _76  and  _79
REMARK   34  A    between atoms: _79  and  _80
REMARK   35  A    between atoms: _83  and  _85
REMARK   36  A    between atoms: _85  and  _86
REMARK   37  A    between atoms: _85  and  _88
REMARK   38  A    between atoms: _88  and  _89
REMARK   39  A    between atoms: _92  and  _94
REMARK   40  A    between atoms: _94  and  _95
REMARK   41  A    between atoms: _94  and  _97
REMARK   42  A    between atoms: _97  and  _98
REMARK   43  A    between atoms: _101  and  _103
REMARK   44  A    between atoms: _103  and  _104
REMARK   45  A    between atoms: _103  and  _106
REMARK   46  A    between atoms: _106  and  _107
REMARK   47  A    between atoms: _107  and  _108
REMARK   48  A    between atoms: _110  and  _112
REMARK   49  A    between atoms: _112  and  _113
REMARK   50  A    between atoms: _112  and  _115
REMARK   51  A    between atoms: _118  and  _120
REMARK   52  A    between atoms: _120  and  _121
REMARK   53  A    between atoms: _123  and  _125
REMARK   54  A    between atoms: _125  and  _126
REMARK   55  A    between atoms: _128  and  _130
REMARK   56  A    between atoms: _130  and  _131
REMARK   57  A    between atoms: _130  and  _133
REMARK   58  A    between atoms: _133  and  _134
REMARK   59  A    between atoms: _137  and  _139
REMARK   60  A    between atoms: _139  and  _140
REMARK   61  A    between atoms: _142  and  _144
REMARK   62  A    between atoms: _144  and  _145
REMARK   63  A    between atoms: _147  and  _149
REMARK   64  A    between atoms: _149  and  _150
REMARK   65  A    between atoms: _149  and  _152
REMARK   66  A    between atoms: _152  and  _153
REMARK   67  A    between atoms: _153  and  _154
REMARK   68  A    between atoms: _156  and  _158
REMARK   69  A    between atoms: _158  and  _159
REMARK   70  A    between atoms: _158  and  _161
REMARK   71  A    between atoms: _161  and  _162
REMARK   72  A    between atoms: _165  and  _167
REMARK   73  A    between atoms: _167  and  _168
REMARK   74  A    between atoms: _167  and  _170
REMARK   75  A    between atoms: _170  and  _171
REMARK   76  A    between atoms: _175  and  _176
REMARK   77  A    between atoms: _181  and  _183
REMARK   78  A    between atoms: _183  and  _184
REMARK   79  A    between atoms: _183  and  _186
REMARK   80  A    between atoms: _186  and  _187
REMARK   81  A    between atoms: _190  and  _192
REMARK   82  A    between atoms: _192  and  _193
REMARK   83  A    between atoms: _192  and  _195
REMARK   84  A    between atoms: _195  and  _196
REMARK   85  A    between atoms: _201  and  _203
REMARK   86  A    between atoms: _203  and  _204
REMARK   87  A    between atoms: _203  and  _206
REMARK   88  A    between atoms: _206  and  _207
REMARK   89  A    between atoms: _210  and  _212
REMARK   90  A    between atoms: _212  and  _213
REMARK   91  A    between atoms: _212  and  _215
REMARK   92  A    between atoms: _215  and  _216
REMARK   93  A    between atoms: _219  and  _221
REMARK   94  A    between atoms: _221  and  _222
REMARK   95  A    between atoms: _224  and  _226
REMARK   96  A    between atoms: _226  and  _227
REMARK   97  A    between atoms: _226  and  _229
REMARK   98  A    between atoms: _229  and  _230
REMARK   99  A    between atoms: _230  and  _231
REMARK  100  A    between atoms: _231  and  _232
REMARK  101  A    between atoms: _241  and  _243
REMARK  102  A    between atoms: _243  and  _244
REMARK  103  A    between atoms: _243  and  _246
REMARK  104  A    between atoms: _246  and  _247
REMARK  105  A    between atoms: _252  and  _254
REMARK  106  A    between atoms: _254  and  _255
REMARK  107  A    between atoms: _254  and  _257
REMARK  108  A    between atoms: _257  and  _258
REMARK  109  A    between atoms: _258  and  _259
REMARK  110  A    between atoms: _259  and  _260
REMARK  111  A    between atoms: _269  and  _271
REMARK  112  A    between atoms: _271  and  _272
REMARK  113  A    between atoms: _271  and  _274
REMARK  114  A    between atoms: _274  and  _275
REMARK  115  A    between atoms: _278  and  _280
REMARK  116  A    between atoms: _280  and  _281
REMARK  117  A    between atoms: _280  and  _283
REMARK  118  A    between atoms: _283  and  _284
REMARK  119  A    between atoms: _287  and  _289
REMARK  120  A    between atoms: _289  and  _290
REMARK  121  A    between atoms: _289  and  _292
REMARK  122  A    between atoms: _292  and  _293
REMARK  123  A    between atoms: _296  and  _298
REMARK  124  A    between atoms: _298  and  _299
REMARK  125  A    between atoms: _298  and  _301
REMARK  126  A    between atoms: _301  and  _302
REMARK  127  A    between atoms: _305  and  _307
REMARK  128  A    between atoms: _307  and  _308
REMARK  129  A    between atoms: _310  and  _312
REMARK  130  A    between atoms: _312  and  _313
REMARK  131  A    between atoms: _316  and  _318
REMARK  132  A    between atoms: _318  and  _319
REMARK  133  A    between atoms: _318  and  _321
REMARK  134  A    between atoms: _321  and  _322
REMARK  135  A    between atoms: _325  and  _327
REMARK  136  A    between atoms: _327  and  _328
REMARK  137  A    between atoms: _327  and  _330
REMARK  138  A    between atoms: _330  and  _331
REMARK  139  A    between atoms: _334  and  _336
REMARK  140  A    between atoms: _336  and  _337
REMARK  141  A    between atoms: _336  and  _339
REMARK  142  A    between atoms: _339  and  _340
REMARK  143  A    between atoms: _343  and  _345
REMARK  144  A    between atoms: _345  and  _346
REMARK  145  A    between atoms: _345  and  _348
REMARK  146  A    between atoms: _348  and  _349
REMARK  147  A    between atoms: _352  and  _354
REMARK  148  A    between atoms: _354  and  _355
REMARK  149  A    between atoms: _354  and  _357
REMARK  150  A    between atoms: _357  and  _358
REMARK  151  A    between atoms: _358  and  _359
REMARK  152  A    between atoms: _361  and  _363
REMARK  153  A    between atoms: _363  and  _364
REMARK  154  A    between atoms: _363  and  _366
REMARK  155  A    between atoms: _369  and  _371
REMARK  156  A    between atoms: _371  and  _372
REMARK  157  A    between atoms: _374  and  _376
REMARK  158  A    between atoms: _376  and  _377
REMARK  159  A    between atoms: _379  and  _381
REMARK  160  A    between atoms: _381  and  _382
REMARK  161  A    between atoms: _381  and  _384
REMARK  162  A    between atoms: _384  and  _385
REMARK  163  A    between atoms: _388  and  _390
REMARK  164  A    between atoms: _390  and  _391
REMARK  165  A    between atoms: _393  and  _395
REMARK  166  A    between atoms: _395  and  _396
REMARK  167  A    between atoms: _398  and  _400
REMARK  168  A    between atoms: _400  and  _401
REMARK  169  A    between atoms: _400  and  _403
REMARK  170  A    between atoms: _403  and  _404
REMARK  171  A    between atoms: _404  and  _405
REMARK  172  A    between atoms: _407  and  _409
REMARK  173  A    between atoms: _409  and  _410
REMARK  174  A    between atoms: _409  and  _412
REMARK  175  A    between atoms: _412  and  _413
REMARK  176  A    between atoms: _417  and  _418
REMARK  177  A    between atoms: _423  and  _425
REMARK  178  A    between atoms: _425  and  _426
REMARK  179  A    between atoms: _425  and  _428
REMARK  180  A    between atoms: _428  and  _429
REMARK  181  A    between atoms: _433  and  _434
REMARK  182  A    between atoms: _439  and  _441
REMARK  183  A    between atoms: _441  and  _442
REMARK  184  A    between atoms: _441  and  _444
REMARK  185  A    between atoms: _444  and  _445
REMARK  186  A    between atoms: _448  and  _450
REMARK  187  A    between atoms: _450  and  _451
REMARK  188  A    between atoms: _450  and  _453
REMARK  189  A    between atoms: _453  and  _454
REMARK  190  A    between atoms: _459  and  _461
REMARK  191  A    between atoms: _461  and  _462
REMARK  192  A    between atoms: _461  and  _464
REMARK  193  A    between atoms: _464  and  _465
REMARK  194  A    between atoms: _468  and  _470
REMARK  195  A    between atoms: _470  and  _471
REMARK  196  A    between atoms: _470  and  _473
REMARK  197  A    between atoms: _473  and  _474
REMARK  198  A    between atoms: _477  and  _479
REMARK  199  A    between atoms: _479  and  _480
REMARK  200  A    between atoms: _482  and  _484
REMARK  201  A    between atoms: _484  and  _485
REMARK  202  A    between atoms: _484  and  _487
REMARK  203  A    between atoms: _487  and  _488
REMARK  204  A    between atoms: _488  and  _489
REMARK  205  A    between atoms: _489  and  _490
REMARK  206  A    between atoms: _499  and  _501
REMARK  207  A    between atoms: _501  and  _502
REMARK  208  A    between atoms: _501  and  _504
REMARK  209  A    between atoms: _504  and  _505
REMARK                            x       y       z     vdW  Elec       q    Type
REMARK                         _______ _______ _______ _____ _____    ______ ____
ROOT
ATOM      1  O   HOH     1     -10.331  17.040  12.506  0.00  0.00    +0.000 OA
ENDROOT
TORSDOF 0
REMARK  Name = ../refined-set-2016/3ttp/3ttp_pocket.pdb
REMARK  209 active torsions:
REMARK  status: ('A' for Active; 'I' for Inactive)
REMARK    1  A    between atoms: _1  and  _3
REMARK    2  A    between atoms: _3  and  _4
REMARK    3  A    between atoms: _3  and  _6
REMARK    4  A    between atoms: _6  and  _7
REMARK    5  A    between atoms: _7  and  _8
REMARK    6  A    between atoms: _8  and  _9
REMARK    7  A    between atoms: _18  and  _20
REMARK    8  A    between atoms: _20  and  _21
REMARK    9  A    between atoms: _20  and  _23
REMARK   10  A    between atoms: _23  and  _24
REMARK   11  A    between atoms: _27  and  _29
REMARK   12  A    between atoms: _29  and  _30
REMARK   13  A    between atoms: _29  and  _32
REMARK   14  A    between atoms: _32  and  _33
REMARK   15  A    between atoms: _36  and  _38
REMARK   16  A    between atoms: _38  and  _39
REMARK   17  A    between atoms: _38  and  _41
REMARK   18  A    between atoms: _41  and  _42
REMARK   19  A    between atoms: _45  and  _47
REMARK   20  A    between atoms: _47  and  _48
REMARK   21  A    between atoms: _47  and  _50
REMARK   22  A    between atoms: _50  and  _51
REMARK   23  A    between atoms: _54  and  _56
REMARK   24  A    between atoms: _56  and  _57
REMARK   25  A    between atoms: _59  and  _61
REMARK   26  A    between atoms: _61  and  _62
REMARK   27  A    between atoms: _65  and  _67
REMARK   28  A    between atoms: _67  and  _68
REMARK   29  A    between atoms: _67  and  _70
REMARK   30  A    between atoms: _70  and  _71
REMARK   31  A    between atoms: _74  and  _76
REMARK   32  A    between atoms: _76  and  _77
REMARK   33  A    between atoms: _76  and  _79
REMARK   34  A    between atoms: _79  and  _80
REMARK   35  A    between atoms: _83  and  _85
REMARK   36  A    between atoms: _85  and  _86
REMARK   37  A    between atoms: _85  and  _88
REMARK   38  A    between atoms: _88  and  _89
REMARK   39  A    between atoms: _92  and  _94
REMARK   40  A    between atoms: _94  and  _95
REMARK   41  A    between atoms: _94  and  _97
REMARK   42  A    between atoms: _97  and  _98
REMARK   43  A    between atoms: _101  and  _103
REMARK   44  A    between atoms: _103  and  _104
REMARK   45  A    between atoms: _103  and  _106
REMARK   46  A    between atoms: _106  and  _107
REMARK   47  A    between atoms: _107  and  _108
REMARK   48  A    between atoms: _110  and  _112
REMARK   49  A    between atoms: _112  and  _113
REMARK   50  A    between atoms: _112  and  _115
REMARK   51  A    between atoms: _118  and  _120
REMARK   52  A    between atoms: _120  and  _121
REMARK   53  A    between atoms: _123  and  _125
REMARK   54  A    between atoms: _125  and  _126
REMARK   55  A    between atoms: _128  and  _130
REMARK   56  A    between atoms: _130  and  _131
REMARK   57  A    between atoms: _130  and  _133
REMARK   58  A    between atoms: _133  and  _134
REMARK   59  A    between atoms: _137  and  _139
REMARK   60  A    between atoms: _139  and  _140
REMARK   61  A    between atoms: _142  and  _144
REMARK   62  A    between atoms: _144  and  _145
REMARK   63  A    between atoms: _147  and  _149
REMARK   64  A    between atoms: _149  and  _150
REMARK   65  A    between atoms: _149  and  _152
REMARK   66  A    between atoms: _152  and  _153
REMARK   67  A    between atoms: _153  and  _154
REMARK   68  A    between atoms: _156  and  _158
REMARK   69  A    between atoms: _158  and  _159
REMARK   70  A    between atoms: _158  and  _161
REMARK   71  A    between atoms: _161  and  _162
REMARK   72  A    between atoms: _165  and  _167
REMARK   73  A    between atoms: _167  and  _168
REMARK   74  A    between atoms: _167  and  _170
REMARK   75  A    between atoms: _170  and  _171
REMARK   76  A    between atoms: _175  and  _176
REMARK   77  A    between atoms: _181  and  _183
REMARK   78  A    between atoms: _183  and  _184
REMARK   79  A    between atoms: _183  and  _186
REMARK   80  A    between atoms: _186  and  _187
REMARK   81  A    between atoms: _190  and  _192
REMARK   82  A    between atoms: _192  and  _193
REMARK   83  A    between atoms: _192  and  _195
REMARK   84  A    between atoms: _195  and  _196
REMARK   85  A    between atoms: _201  and  _203
REMARK   86  A    between atoms: _203  and  _204
REMARK   87  A    between atoms: _203  and  _206
REMARK   88  A    between atoms: _206  and  _207
REMARK   89  A    between atoms: _210  and  _212
REMARK   90  A    between atoms: _212  and  _213
REMARK   91  A    between atoms: _212  and  _215
REMARK   92  A    between atoms: _215  and  _216
REMARK   93  A    between atoms: _219  and  _221
REMARK   94  A    between atoms: _221  and  _222
REMARK   95  A    between atoms: _224  and  _226
REMARK   96  A    between atoms: _226  and  _227
REMARK   97  A    between atoms: _226  and  _229
REMARK   98  A    between atoms: _229  and  _230
REMARK   99  A    between atoms: _230  and  _231
REMARK  100  A    between atoms: _231  and  _232
REMARK  101  A    between atoms: _241  and  _243
REMARK  102  A    between atoms: _243  and  _244
REMARK  103  A    between atoms: _243  and  _246
REMARK  104  A    between atoms: _246  and  _247
REMARK  105  A    between atoms: _252  and  _254
REMARK  106  A    between atoms: _254  and  _255
REMARK  107  A    between atoms: _254  and  _257
REMARK  108  A    between atoms: _257  and  _258
REMARK  109  A    between atoms: _258  and  _259
REMARK  110  A    between atoms: _259  and  _260
REMARK  111  A    between atoms: _269  and  _271
REMARK  112  A    between atoms: _271  and  _272
REMARK  113  A    between atoms: _271  and  _274
REMARK  114  A    between atoms: _274  and  _275
REMARK  115  A    between atoms: _278  and  _280
REMARK  116  A    between atoms: _280  and  _281
REMARK  117  A    between atoms: _280  and  _283
REMARK  118  A    between atoms: _283  and  _284
REMARK  119  A    between atoms: _287  and  _289
REMARK  120  A    between atoms: _289  and  _290
REMARK  121  A    between atoms: _289  and  _292
REMARK  122  A    between atoms: _292  and  _293
REMARK  123  A    between atoms: _296  and  _298
REMARK  124  A    between atoms: _298  and  _299
REMARK  125  A    between atoms: _298  and  _301
REMARK  126  A    between atoms: _301  and  _302
REMARK  127  A    between atoms: _305  and  _307
REMARK  128  A    between atoms: _307  and  _308
REMARK  129  A    between atoms: _310  and  _312
REMARK  130  A    between atoms: _312  and  _313
REMARK  131  A    between atoms: _316  and  _318
REMARK  132  A    between atoms: _318  and  _319
REMARK  133  A    between atoms: _318  and  _321
REMARK  134  A    between atoms: _321  and  _322
REMARK  135  A    between atoms: _325  and  _327
REMARK  136  A    between atoms: _327  and  _328
REMARK  137  A    between atoms: _327  and  _330
REMARK  138  A    between atoms: _330  and  _331
REMARK  139  A    between atoms: _334  and  _336
REMARK  140  A    between atoms: _336  and  _337
REMARK  141  A    between atoms: _336  and  _339
REMARK  142  A    between atoms: _339  and  _340
REMARK  143  A    between atoms: _343  and  _345
REMARK  144  A    between atoms: _345  and  _346
REMARK  145  A    between atoms: _345  and  _348
REMARK  146  A    between atoms: _348  and  _349
REMARK  147  A    between atoms: _352  and  _354
REMARK  148  A    between atoms: _354  and  _355
REMARK  149  A    between atoms: _354  and  _357
REMARK  150  A    between atoms: _357  and  _358
REMARK  151  A    between atoms: _358  and  _359
REMARK  152  A    between atoms: _361  and  _363
REMARK  153  A    between atoms: _363  and  _364
REMARK  154  A    between atoms: _363  and  _366
REMARK  155  A    between atoms: _369  and  _371
REMARK  156  A    between atoms: _371  and  _372
REMARK  157  A    between atoms: _374  and  _376
REMARK  158  A    between atoms: _376  and  _377
REMARK  159  A    between atoms: _379  and  _381
REMARK  160  A    between atoms: _381  and  _382
REMARK  161  A    between atoms: _381  and  _384
REMARK  162  A    between atoms: _384  and  _385
REMARK  163  A    between atoms: _388  and  _390
REMARK  164  A    between atoms: _390  and  _391
REMARK  165  A    between atoms: _393  and  _395
REMARK  166  A    between atoms: _395  and  _396
REMARK  167  A    between atoms: _398  and  _400
REMARK  168  A    between atoms: _400  and  _401
REMARK  169  A    between atoms: _400  and  _403
REMARK  170  A    between atoms: _403  and  _404
REMARK  171  A    between atoms: _404  and  _405
REMARK  172  A    between atoms: _407  and  _409
REMARK  173  A    between atoms: _409  and  _410
REMARK  174  A    between atoms: _409  and  _412
REMARK  175  A    between atoms: _412  and  _413
REMARK  176  A    between atoms: _417  and  _418
REMARK  177  A    between atoms: _423  and  _425
REMARK  178  A    between atoms: _425  and  _426
REMARK  179  A    between atoms: _425  and  _428
REMARK  180  A    between atoms: _428  and  _429
REMARK  181  A    between atoms: _433  and  _434
REMARK  182  A    between atoms: _439  and  _441
REMARK  183  A    between atoms: _441  and  _442
REMARK  184  A    between atoms: _441  and  _444
REMARK  185  A    between atoms: _444  and  _445
REMARK  186  A    between atoms: _448  and  _450
REMARK  187  A    between atoms: _450  and  _451
REMARK  188  A    between atoms: _450  and  _453
REMARK  189  A    between atoms: _453  and  _454
REMARK  190  A    between atoms: _459  and  _461
REMARK  191  A    between atoms: _461  and  _462
REMARK  192  A    between atoms: _461  and  _464
REMARK  193  A    between atoms: _464  and  _465
REMARK  194  A    between atoms: _468  and  _470
REMARK  195  A    between atoms: _470  and  _471
REMARK  196  A    between atoms: _470  and  _473
REMARK  197  A    between atoms: _473  and  _474
REMARK  198  A    between atoms: _477  and  _479
REMARK  199  A    between atoms: _479  and  _480
REMARK  200  A    between atoms: _482  and  _484
REMARK  201  A    between atoms: _484  and  _485
REMARK  202  A    between atoms: _484  and  _487
REMARK  203  A    between atoms: _487  and  _488
REMARK  204  A    between atoms: _488  and  _489
REMARK  205  A    between atoms: _489  and  _490
REMARK  206  A    between atoms: _499  and  _501
REMARK  207  A    between atoms: _501  and  _502
REMARK  208  A    between atoms: _501  and  _504
REMARK  209  A    between atoms: _504  and  _505
REMARK                            x       y       z     vdW  Elec       q    Type
REMARK                         _______ _______ _______ _____ _____    ______ ____
ROOT
ATOM      1  O   HOH     1      -6.296  21.793  22.748  0.00  0.00    +0.000 OA
ENDROOT
TORSDOF 0
REMARK  Name = ../refined-set-2016/3ttp/3ttp_pocket.pdb
REMARK  209 active torsions:
REMARK  status: ('A' for Active; 'I' for Inactive)
REMARK    1  A    between atoms: _1  and  _3
REMARK    2  A    between atoms: _3  and  _4
REMARK    3  A    between atoms: _3  and  _6
REMARK    4  A    between atoms: _6  and  _7
REMARK    5  A    between atoms: _7  and  _8
REMARK    6  A    between atoms: _8  and  _9
REMARK    7  A    between atoms: _18  and  _20
REMARK    8  A    between atoms: _20  and  _21
REMARK    9  A    between atoms: _20  and  _23
REMARK   10  A    between atoms: _23  and  _24
REMARK   11  A    between atoms: _27  and  _29
REMARK   12  A    between atoms: _29  and  _30
REMARK   13  A    between atoms: _29  and  _32
REMARK   14  A    between atoms: _32  and  _33
REMARK   15  A    between atoms: _36  and  _38
REMARK   16  A    between atoms: _38  and  _39
REMARK   17  A    between atoms: _38  and  _41
REMARK   18  A    between atoms: _41  and  _42
REMARK   19  A    between atoms: _45  and  _47
REMARK   20  A    between atoms: _47  and  _48
REMARK   21  A    between atoms: _47  and  _50
REMARK   22  A    between atoms: _50  and  _51
REMARK   23  A    between atoms: _54  and  _56
REMARK   24  A    between atoms: _56  and  _57
REMARK   25  A    between atoms: _59  and  _61
REMARK   26  A    between atoms: _61  and  _62
REMARK   27  A    between atoms: _65  and  _67
REMARK   28  A    between atoms: _67  and  _68
REMARK   29  A    between atoms: _67  and  _70
REMARK   30  A    between atoms: _70  and  _71
REMARK   31  A    between atoms: _74  and  _76
REMARK   32  A    between atoms: _76  and  _77
REMARK   33  A    between atoms: _76  and  _79
REMARK   34  A    between atoms: _79  and  _80
REMARK   35  A    between atoms: _83  and  _85
REMARK   36  A    between atoms: _85  and  _86
REMARK   37  A    between atoms: _85  and  _88
REMARK   38  A    between atoms: _88  and  _89
REMARK   39  A    between atoms: _92  and  _94
REMARK   40  A    between atoms: _94  and  _95
REMARK   41  A    between atoms: _94  and  _97
REMARK   42  A    between atoms: _97  and  _98
REMARK   43  A    between atoms: _101  and  _103
REMARK   44  A    between atoms: _103  and  _104
REMARK   45  A    between atoms: _103  and  _106
REMARK   46  A    between atoms: _106  and  _107
REMARK   47  A    between atoms: _107  and  _108
REMARK   48  A    between atoms: _110  and  _112
REMARK   49  A    between atoms: _112  and  _113
REMARK   50  A    between atoms: _112  and  _115
REMARK   51  A    between atoms: _118  and  _120
REMARK   52  A    between atoms: _120  and  _121
REMARK   53  A    between atoms: _123  and  _125
REMARK   54  A    between atoms: _125  and  _126
REMARK   55  A    between atoms: _128  and  _130
REMARK   56  A    between atoms: _130  and  _131
REMARK   57  A    between atoms: _130  and  _133
REMARK   58  A    between atoms: _133  and  _134
REMARK   59  A    between atoms: _137  and  _139
REMARK   60  A    between atoms: _139  and  _140
REMARK   61  A    between atoms: _142  and  _144
REMARK   62  A    between atoms: _144  and  _145
REMARK   63  A    between atoms: _147  and  _149
REMARK   64  A    between atoms: _149  and  _150
REMARK   65  A    between atoms: _149  and  _152
REMARK   66  A    between atoms: _152  and  _153
REMARK   67  A    between atoms: _153  and  _154
REMARK   68  A    between atoms: _156  and  _158
REMARK   69  A    between atoms: _158  and  _159
REMARK   70  A    between atoms: _158  and  _161
REMARK   71  A    between atoms: _161  and  _162
REMARK   72  A    between atoms: _165  and  _167
REMARK   73  A    between atoms: _167  and  _168
REMARK   74  A    between atoms: _167  and  _170
REMARK   75  A    between atoms: _170  and  _171
REMARK   76  A    between atoms: _175  and  _176
REMARK   77  A    between atoms: _181  and  _183
REMARK   78  A    between atoms: _183  and  _184
REMARK   79  A    between atoms: _183  and  _186
REMARK   80  A    between atoms: _186  and  _187
REMARK   81  A    between atoms: _190  and  _192
REMARK   82  A    between atoms: _192  and  _193
REMARK   83  A    between atoms: _192  and  _195
REMARK   84  A    between atoms: _195  and  _196
REMARK   85  A    between atoms: _201  and  _203
REMARK   86  A    between atoms: _203  and  _204
REMARK   87  A    between atoms: _203  and  _206
REMARK   88  A    between atoms: _206  and  _207
REMARK   89  A    between atoms: _210  and  _212
REMARK   90  A    between atoms: _212  and  _213
REMARK   91  A    between atoms: _212  and  _215
REMARK   92  A    between atoms: _215  and  _216
REMARK   93  A    between atoms: _219  and  _221
REMARK   94  A    between atoms: _221  and  _222
REMARK   95  A    between atoms: _224  and  _226
REMARK   96  A    between atoms: _226  and  _227
REMARK   97  A    between atoms: _226  and  _229
REMARK   98  A    between atoms: _229  and  _230
REMARK   99  A    between atoms: _230  and  _231
REMARK  100  A    between atoms: _231  and  _232
REMARK  101  A    between atoms: _241  and  _243
REMARK  102  A    between atoms: _243  and  _244
REMARK  103  A    between atoms: _243  and  _246
REMARK  104  A    between atoms: _246  and  _247
REMARK  105  A    between atoms: _252  and  _254
REMARK  106  A    between atoms: _254  and  _255
REMARK  107  A    between atoms: _254  and  _257
REMARK  108  A    between atoms: _257  and  _258
REMARK  109  A    between atoms: _258  and  _259
REMARK  110  A    between atoms: _259  and  _260
REMARK  111  A    between atoms: _269  and  _271
REMARK  112  A    between atoms: _271  and  _272
REMARK  113  A    between atoms: _271  and  _274
REMARK  114  A    between atoms: _274  and  _275
REMARK  115  A    between atoms: _278  and  _280
REMARK  116  A    between atoms: _280  and  _281
REMARK  117  A    between atoms: _280  and  _283
REMARK  118  A    between atoms: _283  and  _284
REMARK  119  A    between atoms: _287  and  _289
REMARK  120  A    between atoms: _289  and  _290
REMARK  121  A    between atoms: _289  and  _292
REMARK  122  A    between atoms: _292  and  _293
REMARK  123  A    between atoms: _296  and  _298
REMARK  124  A    between atoms: _298  and  _299
REMARK  125  A    between atoms: _298  and  _301
REMARK  126  A    between atoms: _301  and  _302
REMARK  127  A    between atoms: _305  and  _307
REMARK  128  A    between atoms: _307  and  _308
REMARK  129  A    between atoms: _310  and  _312
REMARK  130  A    between atoms: _312  and  _313
REMARK  131  A    between atoms: _316  and  _318
REMARK  132  A    between atoms: _318  and  _319
REMARK  133  A    between atoms: _318  and  _321
REMARK  134  A    between atoms: _321  and  _322
REMARK  135  A    between atoms: _325  and  _327
REMARK  136  A    between atoms: _327  and  _328
REMARK  137  A    between atoms: _327  and  _330
REMARK  138  A    between atoms: _330  and  _331
REMARK  139  A    between atoms: _334  and  _336
REMARK  140  A    between atoms: _336  and  _337
REMARK  141  A    between atoms: _336  and  _339
REMARK  142  A    between atoms: _339  and  _340
REMARK  143  A    between atoms: _343  and  _345
REMARK  144  A    between atoms: _345  and  _346
REMARK  145  A    between atoms: _345  and  _348
REMARK  146  A    between atoms: _348  and  _349
REMARK  147  A    between atoms: _352  and  _354
REMARK  148  A    between atoms: _354  and  _355
REMARK  149  A    between atoms: _354  and  _357
REMARK  150  A    between atoms: _357  and  _358
REMARK  151  A    between atoms: _358  and  _359
REMARK  152  A    between atoms: _361  and  _363
REMARK  153  A    between atoms: _363  and  _364
REMARK  154  A    between atoms: _363  and  _366
REMARK  155  A    between atoms: _369  and  _371
REMARK  156  A    between atoms: _371  and  _372
REMARK  157  A    between atoms: _374  and  _376
REMARK  158  A    between atoms: _376  and  _377
REMARK  159  A    between atoms: _379  and  _381
REMARK  160  A    between atoms: _381  and  _382
REMARK  161  A    between atoms: _381  and  _384
REMARK  162  A    between atoms: _384  and  _385
REMARK  163  A    between atoms: _388  and  _390
REMARK  164  A    between atoms: _390  and  _391
REMARK  165  A    between atoms: _393  and  _395
REMARK  166  A    between atoms: _395  and  _396
REMARK  167  A    between atoms: _398  and  _400
REMARK  168  A    between atoms: _400  and  _401
REMARK  169  A    between atoms: _400  and  _403
REMARK  170  A    between atoms: _403  and  _404
REMARK  171  A    between atoms: _404  and  _405
REMARK  172  A    between atoms: _407  and  _409
REMARK  173  A    between atoms: _409  and  _410
REMARK  174  A    between atoms: _409  and  _412
REMARK  175  A    between atoms: _412  and  _413
REMARK  176  A    between atoms: _417  and  _418
REMARK  177  A    between atoms: _423  and  _425
REMARK  178  A    between atoms: _425  and  _426
REMARK  179  A    between atoms: _425  and  _428
REMARK  180  A    between atoms: _428  and  _429
REMARK  181  A    between atoms: _433  and  _434
REMARK  182  A    between atoms: _439  and  _441
REMARK  183  A    between atoms: _441  and  _442
REMARK  184  A    between atoms: _441  and  _444
REMARK  185  A    between atoms: _444  and  _445
REMARK  186  A    between atoms: _448  and  _450
REMARK  187  A    between atoms: _450  and  _451
REMARK  188  A    between atoms: _450  and  _453
REMARK  189  A    between atoms: _453  and  _454
REMARK  190  A    between atoms: _459  and  _461
REMARK  191  A    between atoms: _461  and  _462
REMARK  192  A    between atoms: _461  and  _464
REMARK  193  A    between atoms: _464  and  _465
REMARK  194  A    between atoms: _468  and  _470
REMARK  195  A    between atoms: _470  and  _471
REMARK  196  A    between atoms: _470  and  _473
REMARK  197  A    between atoms: _473  and  _474
REMARK  198  A    between atoms: _477  and  _479
REMARK  199  A    between atoms: _479  and  _480
REMARK  200  A    between atoms: _482  and  _484
REMARK  201  A    between atoms: _484  and  _485
REMARK  202  A    between atoms: _484  and  _487
REMARK  203  A    between atoms: _487  and  _488
REMARK  204  A    between atoms: _488  and  _489
REMARK  205  A    between atoms: _489  and  _490
REMARK  206  A    between atoms: _499  and  _501
REMARK  207  A    between atoms: _501  and  _502
REMARK  208  A    between atoms: _501  and  _504
REMARK  209  A    between atoms: _504  and  _505
REMARK                            x       y       z     vdW  Elec       q    Type
REMARK                         _______ _______ _______ _____ _____    ______ ____
ROOT
ATOM      1  O   HOH     1      -4.139  15.351  19.530  0.00  0.00    +0.000 OA
ENDROOT
TORSDOF 0
REMARK  Name = ../refined-set-2016/3ttp/3ttp_pocket.pdb
REMARK  209 active torsions:
REMARK  status: ('A' for Active; 'I' for Inactive)
REMARK    1  A    between atoms: _1  and  _3
REMARK    2  A    between atoms: _3  and  _4
REMARK    3  A    between atoms: _3  and  _6
REMARK    4  A    between atoms: _6  and  _7
REMARK    5  A    between atoms: _7  and  _8
REMARK    6  A    between atoms: _8  and  _9
REMARK    7  A    between atoms: _18  and  _20
REMARK    8  A    between atoms: _20  and  _21
REMARK    9  A    between atoms: _20  and  _23
REMARK   10  A    between atoms: _23  and  _24
REMARK   11  A    between atoms: _27  and  _29
REMARK   12  A    between atoms: _29  and  _30
REMARK   13  A    between atoms: _29  and  _32
REMARK   14  A    between atoms: _32  and  _33
REMARK   15  A    between atoms: _36  and  _38
REMARK   16  A    between atoms: _38  and  _39
REMARK   17  A    between atoms: _38  and  _41
REMARK   18  A    between atoms: _41  and  _42
REMARK   19  A    between atoms: _45  and  _47
REMARK   20  A    between atoms: _47  and  _48
REMARK   21  A    between atoms: _47  and  _50
REMARK   22  A    between atoms: _50  and  _51
REMARK   23  A    between atoms: _54  and  _56
REMARK   24  A    between atoms: _56  and  _57
REMARK   25  A    between atoms: _59  and  _61
REMARK   26  A    between atoms: _61  and  _62
REMARK   27  A    between atoms: _65  and  _67
REMARK   28  A    between atoms: _67  and  _68
REMARK   29  A    between atoms: _67  and  _70
REMARK   30  A    between atoms: _70  and  _71
REMARK   31  A    between atoms: _74  and  _76
REMARK   32  A    between atoms: _76  and  _77
REMARK   33  A    between atoms: _76  and  _79
REMARK   34  A    between atoms: _79  and  _80
REMARK   35  A    between atoms: _83  and  _85
REMARK   36  A    between atoms: _85  and  _86
REMARK   37  A    between atoms: _85  and  _88
REMARK   38  A    between atoms: _88  and  _89
REMARK   39  A    between atoms: _92  and  _94
REMARK   40  A    between atoms: _94  and  _95
REMARK   41  A    between atoms: _94  and  _97
REMARK   42  A    between atoms: _97  and  _98
REMARK   43  A    between atoms: _101  and  _103
REMARK   44  A    between atoms: _103  and  _104
REMARK   45  A    between atoms: _103  and  _106
REMARK   46  A    between atoms: _106  and  _107
REMARK   47  A    between atoms: _107  and  _108
REMARK   48  A    between atoms: _110  and  _112
REMARK   49  A    between atoms: _112  and  _113
REMARK   50  A    between atoms: _112  and  _115
REMARK   51  A    between atoms: _118  and  _120
REMARK   52  A    between atoms: _120  and  _121
REMARK   53  A    between atoms: _123  and  _125
REMARK   54  A    between atoms: _125  and  _126
REMARK   55  A    between atoms: _128  and  _130
REMARK   56  A    between atoms: _130  and  _131
REMARK   57  A    between atoms: _130  and  _133
REMARK   58  A    between atoms: _133  and  _134
REMARK   59  A    between atoms: _137  and  _139
REMARK   60  A    between atoms: _139  and  _140
REMARK   61  A    between atoms: _142  and  _144
REMARK   62  A    between atoms: _144  and  _145
REMARK   63  A    between atoms: _147  and  _149
REMARK   64  A    between atoms: _149  and  _150
REMARK   65  A    between atoms: _149  and  _152
REMARK   66  A    between atoms: _152  and  _153
REMARK   67  A    between atoms: _153  and  _154
REMARK   68  A    between atoms: _156  and  _158
REMARK   69  A    between atoms: _158  and  _159
REMARK   70  A    between atoms: _158  and  _161
REMARK   71  A    between atoms: _161  and  _162
REMARK   72  A    between atoms: _165  and  _167
REMARK   73  A    between atoms: _167  and  _168
REMARK   74  A    between atoms: _167  and  _170
REMARK   75  A    between atoms: _170  and  _171
REMARK   76  A    between atoms: _175  and  _176
REMARK   77  A    between atoms: _181  and  _183
REMARK   78  A    between atoms: _183  and  _184
REMARK   79  A    between atoms: _183  and  _186
REMARK   80  A    between atoms: _186  and  _187
REMARK   81  A    between atoms: _190  and  _192
REMARK   82  A    between atoms: _192  and  _193
REMARK   83  A    between atoms: _192  and  _195
REMARK   84  A    between atoms: _195  and  _196
REMARK   85  A    between atoms: _201  and  _203
REMARK   86  A    between atoms: _203  and  _204
REMARK   87  A    between atoms: _203  and  _206
REMARK   88  A    between atoms: _206  and  _207
REMARK   89  A    between atoms: _210  and  _212
REMARK   90  A    between atoms: _212  and  _213
REMARK   91  A    between atoms: _212  and  _215
REMARK   92  A    between atoms: _215  and  _216
REMARK   93  A    between atoms: _219  and  _221
REMARK   94  A    between atoms: _221  and  _222
REMARK   95  A    between atoms: _224  and  _226
REMARK   96  A    between atoms: _226  and  _227
REMARK   97  A    between atoms: _226  and  _229
REMARK   98  A    between atoms: _229  and  _230
REMARK   99  A    between atoms: _230  and  _231
REMARK  100  A    between atoms: _231  and  _232
REMARK  101  A    between atoms: _241  and  _243
REMARK  102  A    between atoms: _243  and  _244
REMARK  103  A    between atoms: _243  and  _246
REMARK  104  A    between atoms: _246  and  _247
REMARK  105  A    between atoms: _252  and  _254
REMARK  106  A    between atoms: _254  and  _255
REMARK  107  A    between atoms: _254  and  _257
REMARK  108  A    between atoms: _257  and  _258
REMARK  109  A    between atoms: _258  and  _259
REMARK  110  A    between atoms: _259  and  _260
REMARK  111  A    between atoms: _269  and  _271
REMARK  112  A    between atoms: _271  and  _272
REMARK  113  A    between atoms: _271  and  _274
REMARK  114  A    between atoms: _274  and  _275
REMARK  115  A    between atoms: _278  and  _280
REMARK  116  A    between atoms: _280  and  _281
REMARK  117  A    between atoms: _280  and  _283
REMARK  118  A    between atoms: _283  and  _284
REMARK  119  A    between atoms: _287  and  _289
REMARK  120  A    between atoms: _289  and  _290
REMARK  121  A    between atoms: _289  and  _292
REMARK  122  A    between atoms: _292  and  _293
REMARK  123  A    between atoms: _296  and  _298
REMARK  124  A    between atoms: _298  and  _299
REMARK  125  A    between atoms: _298  and  _301
REMARK  126  A    between atoms: _301  and  _302
REMARK  127  A    between atoms: _305  and  _307
REMARK  128  A    between atoms: _307  and  _308
REMARK  129  A    between atoms: _310  and  _312
REMARK  130  A    between atoms: _312  and  _313
REMARK  131  A    between atoms: _316  and  _318
REMARK  132  A    between atoms: _318  and  _319
REMARK  133  A    between atoms: _318  and  _321
REMARK  134  A    between atoms: _321  and  _322
REMARK  135  A    between atoms: _325  and  _327
REMARK  136  A    between atoms: _327  and  _328
REMARK  137  A    between atoms: _327  and  _330
REMARK  138  A    between atoms: _330  and  _331
REMARK  139  A    between atoms: _334  and  _336
REMARK  140  A    between atoms: _336  and  _337
REMARK  141  A    between atoms: _336  and  _339
REMARK  142  A    between atoms: _339  and  _340
REMARK  143  A    between atoms: _343  and  _345
REMARK  144  A    between atoms: _345  and  _346
REMARK  145  A    between atoms: _345  and  _348
REMARK  146  A    between atoms: _348  and  _349
REMARK  147  A    between atoms: _352  and  _354
REMARK  148  A    between atoms: _354  and  _355
REMARK  149  A    between atoms: _354  and  _357
REMARK  150  A    between atoms: _357  and  _358
REMARK  151  A    between atoms: _358  and  _359
REMARK  152  A    between atoms: _361  and  _363
REMARK  153  A    between atoms: _363  and  _364
REMARK  154  A    between atoms: _363  and  _366
REMARK  155  A    between atoms: _369  and  _371
REMARK  156  A    between atoms: _371  and  _372
REMARK  157  A    between atoms: _374  and  _376
REMARK  158  A    between atoms: _376  and  _377
REMARK  159  A    between atoms: _379  and  _381
REMARK  160  A    between atoms: _381  and  _382
REMARK  161  A    between atoms: _381  and  _384
REMARK  162  A    between atoms: _384  and  _385
REMARK  163  A    between atoms: _388  and  _390
REMARK  164  A    between atoms: _390  and  _391
REMARK  165  A    between atoms: _393  and  _395
REMARK  166  A    between atoms: _395  and  _396
REMARK  167  A    between atoms: _398  and  _400
REMARK  168  A    between atoms: _400  and  _401
REMARK  169  A    between atoms: _400  and  _403
REMARK  170  A    between atoms: _403  and  _404
REMARK  171  A    between atoms: _404  and  _405
REMARK  172  A    between atoms: _407  and  _409
REMARK  173  A    between atoms: _409  and  _410
REMARK  174  A    between atoms: _409  and  _412
REMARK  175  A    between atoms: _412  and  _413
REMARK  176  A    between atoms: _417  and  _418
REMARK  177  A    between atoms: _423  and  _425
REMARK  178  A    between atoms: _425  and  _426
REMARK  179  A    between atoms: _425  and  _428
REMARK  180  A    between atoms: _428  and  _429
REMARK  181  A    between atoms: _433  and  _434
REMARK  182  A    between atoms: _439  and  _441
REMARK  183  A    between atoms: _441  and  _442
REMARK  184  A    between atoms: _441  and  _444
REMARK  185  A    between atoms: _444  and  _445
REMARK  186  A    between atoms: _448  and  _450
REMARK  187  A    between atoms: _450  and  _451
REMARK  188  A    between atoms: _450  and  _453
REMARK  189  A    between atoms: _453  and  _454
REMARK  190  A    between atoms: _459  and  _461
REMARK  191  A    between atoms: _461  and  _462
REMARK  192  A    between atoms: _461  and  _464
REMARK  193  A    between atoms: _464  and  _465
REMARK  194  A    between atoms: _468  and  _470
REMARK  195  A    between atoms: _470  and  _471
REMARK  196  A    between atoms: _470  and  _473
REMARK  197  A    between atoms: _473  and  _474
REMARK  198  A    between atoms: _477  and  _479
REMARK  199  A    between atoms: _479  and  _480
REMARK  200  A    between atoms: _482  and  _484
REMARK  201  A    between atoms: _484  and  _485
REMARK  202  A    between atoms: _484  and  _487
REMARK  203  A    between atoms: _487  and  _488
REMARK  204  A    between atoms: _488  and  _489
REMARK  205  A    between atoms: _489  and  _490
REMARK  206  A    between atoms: _499  and  _501
REMARK  207  A    between atoms: _501  and  _502
REMARK  208  A    between atoms: _501  and  _504
REMARK  209  A    between atoms: _504  and  _505
REMARK                            x       y       z     vdW  Elec       q    Type
REMARK                         _______ _______ _______ _____ _____    ______ ____
ROOT
ATOM      1  O   HOH     1      -0.731  14.872  23.387  0.00  0.00    +0.000 OA
ENDROOT
TORSDOF 0
REMARK  Name = ../refined-set-2016/3ttp/3ttp_pocket.pdb
REMARK  209 active torsions:
REMARK  status: ('A' for Active; 'I' for Inactive)
REMARK    1  A    between atoms: _1  and  _3
REMARK    2  A    between atoms: _3  and  _4
REMARK    3  A    between atoms: _3  and  _6
REMARK    4  A    between atoms: _6  and  _7
REMARK    5  A    between atoms: _7  and  _8
REMARK    6  A    between atoms: _8  and  _9
REMARK    7  A    between atoms: _18  and  _20
REMARK    8  A    between atoms: _20  and  _21
REMARK    9  A    between atoms: _20  and  _23
REMARK   10  A    between atoms: _23  and  _24
REMARK   11  A    between atoms: _27  and  _29
REMARK   12  A    between atoms: _29  and  _30
REMARK   13  A    between atoms: _29  and  _32
REMARK   14  A    between atoms: _32  and  _33
REMARK   15  A    between atoms: _36  and  _38
REMARK   16  A    between atoms: _38  and  _39
REMARK   17  A    between atoms: _38  and  _41
REMARK   18  A    between atoms: _41  and  _42
REMARK   19  A    between atoms: _45  and  _47
REMARK   20  A    between atoms: _47  and  _48
REMARK   21  A    between atoms: _47  and  _50
REMARK   22  A    between atoms: _50  and  _51
REMARK   23  A    between atoms: _54  and  _56
REMARK   24  A    between atoms: _56  and  _57
REMARK   25  A    between atoms: _59  and  _61
REMARK   26  A    between atoms: _61  and  _62
REMARK   27  A    between atoms: _65  and  _67
REMARK   28  A    between atoms: _67  and  _68
REMARK   29  A    between atoms: _67  and  _70
REMARK   30  A    between atoms: _70  and  _71
REMARK   31  A    between atoms: _74  and  _76
REMARK   32  A    between atoms: _76  and  _77
REMARK   33  A    between atoms: _76  and  _79
REMARK   34  A    between atoms: _79  and  _80
REMARK   35  A    between atoms: _83  and  _85
REMARK   36  A    between atoms: _85  and  _86
REMARK   37  A    between atoms: _85  and  _88
REMARK   38  A    between atoms: _88  and  _89
REMARK   39  A    between atoms: _92  and  _94
REMARK   40  A    between atoms: _94  and  _95
REMARK   41  A    between atoms: _94  and  _97
REMARK   42  A    between atoms: _97  and  _98
REMARK   43  A    between atoms: _101  and  _103
REMARK   44  A    between atoms: _103  and  _104
REMARK   45  A    between atoms: _103  and  _106
REMARK   46  A    between atoms: _106  and  _107
REMARK   47  A    between atoms: _107  and  _108
REMARK   48  A    between atoms: _110  and  _112
REMARK   49  A    between atoms: _112  and  _113
REMARK   50  A    between atoms: _112  and  _115
REMARK   51  A    between atoms: _118  and  _120
REMARK   52  A    between atoms: _120  and  _121
REMARK   53  A    between atoms: _123  and  _125
REMARK   54  A    between atoms: _125  and  _126
REMARK   55  A    between atoms: _128  and  _130
REMARK   56  A    between atoms: _130  and  _131
REMARK   57  A    between atoms: _130  and  _133
REMARK   58  A    between atoms: _133  and  _134
REMARK   59  A    between atoms: _137  and  _139
REMARK   60  A    between atoms: _139  and  _140
REMARK   61  A    between atoms: _142  and  _144
REMARK   62  A    between atoms: _144  and  _145
REMARK   63  A    between atoms: _147  and  _149
REMARK   64  A    between atoms: _149  and  _150
REMARK   65  A    between atoms: _149  and  _152
REMARK   66  A    between atoms: _152  and  _153
REMARK   67  A    between atoms: _153  and  _154
REMARK   68  A    between atoms: _156  and  _158
REMARK   69  A    between atoms: _158  and  _159
REMARK   70  A    between atoms: _158  and  _161
REMARK   71  A    between atoms: _161  and  _162
REMARK   72  A    between atoms: _165  and  _167
REMARK   73  A    between atoms: _167  and  _168
REMARK   74  A    between atoms: _167  and  _170
REMARK   75  A    between atoms: _170  and  _171
REMARK   76  A    between atoms: _175  and  _176
REMARK   77  A    between atoms: _181  and  _183
REMARK   78  A    between atoms: _183  and  _184
REMARK   79  A    between atoms: _183  and  _186
REMARK   80  A    between atoms: _186  and  _187
REMARK   81  A    between atoms: _190  and  _192
REMARK   82  A    between atoms: _192  and  _193
REMARK   83  A    between atoms: _192  and  _195
REMARK   84  A    between atoms: _195  and  _196
REMARK   85  A    between atoms: _201  and  _203
REMARK   86  A    between atoms: _203  and  _204
REMARK   87  A    between atoms: _203  and  _206
REMARK   88  A    between atoms: _206  and  _207
REMARK   89  A    between atoms: _210  and  _212
REMARK   90  A    between atoms: _212  and  _213
REMARK   91  A    between atoms: _212  and  _215
REMARK   92  A    between atoms: _215  and  _216
REMARK   93  A    between atoms: _219  and  _221
REMARK   94  A    between atoms: _221  and  _222
REMARK   95  A    between atoms: _224  and  _226
REMARK   96  A    between atoms: _226  and  _227
REMARK   97  A    between atoms: _226  and  _229
REMARK   98  A    between atoms: _229  and  _230
REMARK   99  A    between atoms: _230  and  _231
REMARK  100  A    between atoms: _231  and  _232
REMARK  101  A    between atoms: _241  and  _243
REMARK  102  A    between atoms: _243  and  _244
REMARK  103  A    between atoms: _243  and  _246
REMARK  104  A    between atoms: _246  and  _247
REMARK  105  A    between atoms: _252  and  _254
REMARK  106  A    between atoms: _254  and  _255
REMARK  107  A    between atoms: _254  and  _257
REMARK  108  A    between atoms: _257  and  _258
REMARK  109  A    between atoms: _258  and  _259
REMARK  110  A    between atoms: _259  and  _260
REMARK  111  A    between atoms: _269  and  _271
REMARK  112  A    between atoms: _271  and  _272
REMARK  113  A    between atoms: _271  and  _274
REMARK  114  A    between atoms: _274  and  _275
REMARK  115  A    between atoms: _278  and  _280
REMARK  116  A    between atoms: _280  and  _281
REMARK  117  A    between atoms: _280  and  _283
REMARK  118  A    between atoms: _283  and  _284
REMARK  119  A    between atoms: _287  and  _289
REMARK  120  A    between atoms: _289  and  _290
REMARK  121  A    between atoms: _289  and  _292
REMARK  122  A    between atoms: _292  and  _293
REMARK  123  A    between atoms: _296  and  _298
REMARK  124  A    between atoms: _298  and  _299
REMARK  125  A    between atoms: _298  and  _301
REMARK  126  A    between atoms: _301  and  _302
REMARK  127  A    between atoms: _305  and  _307
REMARK  128  A    between atoms: _307  and  _308
REMARK  129  A    between atoms: _310  and  _312
REMARK  130  A    between atoms: _312  and  _313
REMARK  131  A    between atoms: _316  and  _318
REMARK  132  A    between atoms: _318  and  _319
REMARK  133  A    between atoms: _318  and  _321
REMARK  134  A    between atoms: _321  and  _322
REMARK  135  A    between atoms: _325  and  _327
REMARK  136  A    between atoms: _327  and  _328
REMARK  137  A    between atoms: _327  and  _330
REMARK  138  A    between atoms: _330  and  _331
REMARK  139  A    between atoms: _334  and  _336
REMARK  140  A    between atoms: _336  and  _337
REMARK  141  A    between atoms: _336  and  _339
REMARK  142  A    between atoms: _339  and  _340
REMARK  143  A    between atoms: _343  and  _345
REMARK  144  A    between atoms: _345  and  _346
REMARK  145  A    between atoms: _345  and  _348
REMARK  146  A    between atoms: _348  and  _349
REMARK  147  A    between atoms: _352  and  _354
REMARK  148  A    between atoms: _354  and  _355
REMARK  149  A    between atoms: _354  and  _357
REMARK  150  A    between atoms: _357  and  _358
REMARK  151  A    between atoms: _358  and  _359
REMARK  152  A    between atoms: _361  and  _363
REMARK  153  A    between atoms: _363  and  _364
REMARK  154  A    between atoms: _363  and  _366
REMARK  155  A    between atoms: _369  and  _371
REMARK  156  A    between atoms: _371  and  _372
REMARK  157  A    between atoms: _374  and  _376
REMARK  158  A    between atoms: _376  and  _377
REMARK  159  A    between atoms: _379  and  _381
REMARK  160  A    between atoms: _381  and  _382
REMARK  161  A    between atoms: _381  and  _384
REMARK  162  A    between atoms: _384  and  _385
REMARK  163  A    between atoms: _388  and  _390
REMARK  164  A    between atoms: _390  and  _391
REMARK  165  A    between atoms: _393  and  _395
REMARK  166  A    between atoms: _395  and  _396
REMARK  167  A    between atoms: _398  and  _400
REMARK  168  A    between atoms: _400  and  _401
REMARK  169  A    between atoms: _400  and  _403
REMARK  170  A    between atoms: _403  and  _404
REMARK  171  A    between atoms: _404  and  _405
REMARK  172  A    between atoms: _407  and  _409
REMARK  173  A    between atoms: _409  and  _410
REMARK  174  A    between atoms: _409  and  _412
REMARK  175  A    between atoms: _412  and  _413
REMARK  176  A    between atoms: _417  and  _418
REMARK  177  A    between atoms: _423  and  _425
REMARK  178  A    between atoms: _425  and  _426
REMARK  179  A    between atoms: _425  and  _428
REMARK  180  A    between atoms: _428  and  _429
REMARK  181  A    between atoms: _433  and  _434
REMARK  182  A    between atoms: _439  and  _441
REMARK  183  A    between atoms: _441  and  _442
REMARK  184  A    between atoms: _441  and  _444
REMARK  185  A    between atoms: _444  and  _445
REMARK  186  A    between atoms: _448  and  _450
REMARK  187  A    between atoms: _450  and  _451
REMARK  188  A    between atoms: _450  and  _453
REMARK  189  A    between atoms: _453  and  _454
REMARK  190  A    between atoms: _459  and  _461
REMARK  191  A    between atoms: _461  and  _462
REMARK  192  A    between atoms: _461  and  _464
REMARK  193  A    between atoms: _464  and  _465
REMARK  194  A    between atoms: _468  and  _470
REMARK  195  A    between atoms: _470  and  _471
REMARK  196  A    between atoms: _470  and  _473
REMARK  197  A    between atoms: _473  and  _474
REMARK  198  A    between atoms: _477  and  _479
REMARK  199  A    between atoms: _479  and  _480
REMARK  200  A    between atoms: _482  and  _484
REMARK  201  A    between atoms: _484  and  _485
REMARK  202  A    between atoms: _484  and  _487
REMARK  203  A    between atoms: _487  and  _488
REMARK  204  A    between atoms: _488  and  _489
REMARK  205  A    between atoms: _489  and  _490
REMARK  206  A    between atoms: _499  and  _501
REMARK  207  A    between atoms: _501  and  _502
REMARK  208  A    between atoms: _501  and  _504
REMARK  209  A    between atoms: _504  and  _505
REMARK                            x       y       z     vdW  Elec       q    Type
REMARK                         _______ _______ _______ _____ _____    ______ ____
ROOT
ATOM      1  O   HOH     1      -1.852  16.462  21.406  0.00  0.00    +0.000 OA
ENDROOT
TORSDOF 0
REMARK  Name = ../refined-set-2016/3ttp/3ttp_pocket.pdb
REMARK  209 active torsions:
REMARK  status: ('A' for Active; 'I' for Inactive)
REMARK    1  A    between atoms: _1  and  _3
REMARK    2  A    between atoms: _3  and  _4
REMARK    3  A    between atoms: _3  and  _6
REMARK    4  A    between atoms: _6  and  _7
REMARK    5  A    between atoms: _7  and  _8
REMARK    6  A    between atoms: _8  and  _9
REMARK    7  A    between atoms: _18  and  _20
REMARK    8  A    between atoms: _20  and  _21
REMARK    9  A    between atoms: _20  and  _23
REMARK   10  A    between atoms: _23  and  _24
REMARK   11  A    between atoms: _27  and  _29
REMARK   12  A    between atoms: _29  and  _30
REMARK   13  A    between atoms: _29  and  _32
REMARK   14  A    between atoms: _32  and  _33
REMARK   15  A    between atoms: _36  and  _38
REMARK   16  A    between atoms: _38  and  _39
REMARK   17  A    between atoms: _38  and  _41
REMARK   18  A    between atoms: _41  and  _42
REMARK   19  A    between atoms: _45  and  _47
REMARK   20  A    between atoms: _47  and  _48
REMARK   21  A    between atoms: _47  and  _50
REMARK   22  A    between atoms: _50  and  _51
REMARK   23  A    between atoms: _54  and  _56
REMARK   24  A    between atoms: _56  and  _57
REMARK   25  A    between atoms: _59  and  _61
REMARK   26  A    between atoms: _61  and  _62
REMARK   27  A    between atoms: _65  and  _67
REMARK   28  A    between atoms: _67  and  _68
REMARK   29  A    between atoms: _67  and  _70
REMARK   30  A    between atoms: _70  and  _71
REMARK   31  A    between atoms: _74  and  _76
REMARK   32  A    between atoms: _76  and  _77
REMARK   33  A    between atoms: _76  and  _79
REMARK   34  A    between atoms: _79  and  _80
REMARK   35  A    between atoms: _83  and  _85
REMARK   36  A    between atoms: _85  and  _86
REMARK   37  A    between atoms: _85  and  _88
REMARK   38  A    between atoms: _88  and  _89
REMARK   39  A    between atoms: _92  and  _94
REMARK   40  A    between atoms: _94  and  _95
REMARK   41  A    between atoms: _94  and  _97
REMARK   42  A    between atoms: _97  and  _98
REMARK   43  A    between atoms: _101  and  _103
REMARK   44  A    between atoms: _103  and  _104
REMARK   45  A    between atoms: _103  and  _106
REMARK   46  A    between atoms: _106  and  _107
REMARK   47  A    between atoms: _107  and  _108
REMARK   48  A    between atoms: _110  and  _112
REMARK   49  A    between atoms: _112  and  _113
REMARK   50  A    between atoms: _112  and  _115
REMARK   51  A    between atoms: _118  and  _120
REMARK   52  A    between atoms: _120  and  _121
REMARK   53  A    between atoms: _123  and  _125
REMARK   54  A    between atoms: _125  and  _126
REMARK   55  A    between atoms: _128  and  _130
REMARK   56  A    between atoms: _130  and  _131
REMARK   57  A    between atoms: _130  and  _133
REMARK   58  A    between atoms: _133  and  _134
REMARK   59  A    between atoms: _137  and  _139
REMARK   60  A    between atoms: _139  and  _140
REMARK   61  A    between atoms: _142  and  _144
REMARK   62  A    between atoms: _144  and  _145
REMARK   63  A    between atoms: _147  and  _149
REMARK   64  A    between atoms: _149  and  _150
REMARK   65  A    between atoms: _149  and  _152
REMARK   66  A    between atoms: _152  and  _153
REMARK   67  A    between atoms: _153  and  _154
REMARK   68  A    between atoms: _156  and  _158
REMARK   69  A    between atoms: _158  and  _159
REMARK   70  A    between atoms: _158  and  _161
REMARK   71  A    between atoms: _161  and  _162
REMARK   72  A    between atoms: _165  and  _167
REMARK   73  A    between atoms: _167  and  _168
REMARK   74  A    between atoms: _167  and  _170
REMARK   75  A    between atoms: _170  and  _171
REMARK   76  A    between atoms: _175  and  _176
REMARK   77  A    between atoms: _181  and  _183
REMARK   78  A    between atoms: _183  and  _184
REMARK   79  A    between atoms: _183  and  _186
REMARK   80  A    between atoms: _186  and  _187
REMARK   81  A    between atoms: _190  and  _192
REMARK   82  A    between atoms: _192  and  _193
REMARK   83  A    between atoms: _192  and  _195
REMARK   84  A    between atoms: _195  and  _196
REMARK   85  A    between atoms: _201  and  _203
REMARK   86  A    between atoms: _203  and  _204
REMARK   87  A    between atoms: _203  and  _206
REMARK   88  A    between atoms: _206  and  _207
REMARK   89  A    between atoms: _210  and  _212
REMARK   90  A    between atoms: _212  and  _213
REMARK   91  A    between atoms: _212  and  _215
REMARK   92  A    between atoms: _215  and  _216
REMARK   93  A    between atoms: _219  and  _221
REMARK   94  A    between atoms: _221  and  _222
REMARK   95  A    between atoms: _224  and  _226
REMARK   96  A    between atoms: _226  and  _227
REMARK   97  A    between atoms: _226  and  _229
REMARK   98  A    between atoms: _229  and  _230
REMARK   99  A    between atoms: _230  and  _231
REMARK  100  A    between atoms: _231  and  _232
REMARK  101  A    between atoms: _241  and  _243
REMARK  102  A    between atoms: _243  and  _244
REMARK  103  A    between atoms: _243  and  _246
REMARK  104  A    between atoms: _246  and  _247
REMARK  105  A    between atoms: _252  and  _254
REMARK  106  A    between atoms: _254  and  _255
REMARK  107  A    between atoms: _254  and  _257
REMARK  108  A    between atoms: _257  and  _258
REMARK  109  A    between atoms: _258  and  _259
REMARK  110  A    between atoms: _259  and  _260
REMARK  111  A    between atoms: _269  and  _271
REMARK  112  A    between atoms: _271  and  _272
REMARK  113  A    between atoms: _271  and  _274
REMARK  114  A    between atoms: _274  and  _275
REMARK  115  A    between atoms: _278  and  _280
REMARK  116  A    between atoms: _280  and  _281
REMARK  117  A    between atoms: _280  and  _283
REMARK  118  A    between atoms: _283  and  _284
REMARK  119  A    between atoms: _287  and  _289
REMARK  120  A    between atoms: _289  and  _290
REMARK  121  A    between atoms: _289  and  _292
REMARK  122  A    between atoms: _292  and  _293
REMARK  123  A    between atoms: _296  and  _298
REMARK  124  A    between atoms: _298  and  _299
REMARK  125  A    between atoms: _298  and  _301
REMARK  126  A    between atoms: _301  and  _302
REMARK  127  A    between atoms: _305  and  _307
REMARK  128  A    between atoms: _307  and  _308
REMARK  129  A    between atoms: _310  and  _312
REMARK  130  A    between atoms: _312  and  _313
REMARK  131  A    between atoms: _316  and  _318
REMARK  132  A    between atoms: _318  and  _319
REMARK  133  A    between atoms: _318  and  _321
REMARK  134  A    between atoms: _321  and  _322
REMARK  135  A    between atoms: _325  and  _327
REMARK  136  A    between atoms: _327  and  _328
REMARK  137  A    between atoms: _327  and  _330
REMARK  138  A    between atoms: _330  and  _331
REMARK  139  A    between atoms: _334  and  _336
REMARK  140  A    between atoms: _336  and  _337
REMARK  141  A    between atoms: _336  and  _339
REMARK  142  A    between atoms: _339  and  _340
REMARK  143  A    between atoms: _343  and  _345
REMARK  144  A    between atoms: _345  and  _346
REMARK  145  A    between atoms: _345  and  _348
REMARK  146  A    between atoms: _348  and  _349
REMARK  147  A    between atoms: _352  and  _354
REMARK  148  A    between atoms: _354  and  _355
REMARK  149  A    between atoms: _354  and  _357
REMARK  150  A    between atoms: _357  and  _358
REMARK  151  A    between atoms: _358  and  _359
REMARK  152  A    between atoms: _361  and  _363
REMARK  153  A    between atoms: _363  and  _364
REMARK  154  A    between atoms: _363  and  _366
REMARK  155  A    between atoms: _369  and  _371
REMARK  156  A    between atoms: _371  and  _372
REMARK  157  A    between atoms: _374  and  _376
REMARK  158  A    between atoms: _376  and  _377
REMARK  159  A    between atoms: _379  and  _381
REMARK  160  A    between atoms: _381  and  _382
REMARK  161  A    between atoms: _381  and  _384
REMARK  162  A    between atoms: _384  and  _385
REMARK  163  A    between atoms: _388  and  _390
REMARK  164  A    between atoms: _390  and  _391
REMARK  165  A    between atoms: _393  and  _395
REMARK  166  A    between atoms: _395  and  _396
REMARK  167  A    between atoms: _398  and  _400
REMARK  168  A    between atoms: _400  and  _401
REMARK  169  A    between atoms: _400  and  _403
REMARK  170  A    between atoms: _403  and  _404
REMARK  171  A    between atoms: _404  and  _405
REMARK  172  A    between atoms: _407  and  _409
REMARK  173  A    between atoms: _409  and  _410
REMARK  174  A    between atoms: _409  and  _412
REMARK  175  A    between atoms: _412  and  _413
REMARK  176  A    between atoms: _417  and  _418
REMARK  177  A    between atoms: _423  and  _425
REMARK  178  A    between atoms: _425  and  _426
REMARK  179  A    between atoms: _425  and  _428
REMARK  180  A    between atoms: _428  and  _429
REMARK  181  A    between atoms: _433  and  _434
REMARK  182  A    between atoms: _439  and  _441
REMARK  183  A    between atoms: _441  and  _442
REMARK  184  A    between atoms: _441  and  _444
REMARK  185  A    between atoms: _444  and  _445
REMARK  186  A    between atoms: _448  and  _450
REMARK  187  A    between atoms: _450  and  _451
REMARK  188  A    between atoms: _450  and  _453
REMARK  189  A    between atoms: _453  and  _454
REMARK  190  A    between atoms: _459  and  _461
REMARK  191  A    between atoms: _461  and  _462
REMARK  192  A    between atoms: _461  and  _464
REMARK  193  A    between atoms: _464  and  _465
REMARK  194  A    between atoms: _468  and  _470
REMARK  195  A    between atoms: _470  and  _471
REMARK  196  A    between atoms: _470  and  _473
REMARK  197  A    between atoms: _473  and  _474
REMARK  198  A    between atoms: _477  and  _479
REMARK  199  A    between atoms: _479  and  _480
REMARK  200  A    between atoms: _482  and  _484
REMARK  201  A    between atoms: _484  and  _485
REMARK  202  A    between atoms: _484  and  _487
REMARK  203  A    between atoms: _487  and  _488
REMARK  204  A    between atoms: _488  and  _489
REMARK  205  A    between atoms: _489  and  _490
REMARK  206  A    between atoms: _499  and  _501
REMARK  207  A    between atoms: _501  and  _502
REMARK  208  A    between atoms: _501  and  _504
REMARK  209  A    between atoms: _504  and  _505
REMARK                            x       y       z     vdW  Elec       q    Type
REMARK                         _______ _______ _______ _____ _____    ______ ____
ROOT
ATOM      1  O   HOH     1      -0.634  18.834  23.072  0.00  0.00    +0.000 OA
ENDROOT
TORSDOF 0
REMARK  Name = ../refined-set-2016/3ttp/3ttp_pocket.pdb
REMARK  209 active torsions:
REMARK  status: ('A' for Active; 'I' for Inactive)
REMARK    1  A    between atoms: _1  and  _3
REMARK    2  A    between atoms: _3  and  _4
REMARK    3  A    between atoms: _3  and  _6
REMARK    4  A    between atoms: _6  and  _7
REMARK    5  A    between atoms: _7  and  _8
REMARK    6  A    between atoms: _8  and  _9
REMARK    7  A    between atoms: _18  and  _20
REMARK    8  A    between atoms: _20  and  _21
REMARK    9  A    between atoms: _20  and  _23
REMARK   10  A    between atoms: _23  and  _24
REMARK   11  A    between atoms: _27  and  _29
REMARK   12  A    between atoms: _29  and  _30
REMARK   13  A    between atoms: _29  and  _32
REMARK   14  A    between atoms: _32  and  _33
REMARK   15  A    between atoms: _36  and  _38
REMARK   16  A    between atoms: _38  and  _39
REMARK   17  A    between atoms: _38  and  _41
REMARK   18  A    between atoms: _41  and  _42
REMARK   19  A    between atoms: _45  and  _47
REMARK   20  A    between atoms: _47  and  _48
REMARK   21  A    between atoms: _47  and  _50
REMARK   22  A    between atoms: _50  and  _51
REMARK   23  A    between atoms: _54  and  _56
REMARK   24  A    between atoms: _56  and  _57
REMARK   25  A    between atoms: _59  and  _61
REMARK   26  A    between atoms: _61  and  _62
REMARK   27  A    between atoms: _65  and  _67
REMARK   28  A    between atoms: _67  and  _68
REMARK   29  A    between atoms: _67  and  _70
REMARK   30  A    between atoms: _70  and  _71
REMARK   31  A    between atoms: _74  and  _76
REMARK   32  A    between atoms: _76  and  _77
REMARK   33  A    between atoms: _76  and  _79
REMARK   34  A    between atoms: _79  and  _80
REMARK   35  A    between atoms: _83  and  _85
REMARK   36  A    between atoms: _85  and  _86
REMARK   37  A    between atoms: _85  and  _88
REMARK   38  A    between atoms: _88  and  _89
REMARK   39  A    between atoms: _92  and  _94
REMARK   40  A    between atoms: _94  and  _95
REMARK   41  A    between atoms: _94  and  _97
REMARK   42  A    between atoms: _97  and  _98
REMARK   43  A    between atoms: _101  and  _103
REMARK   44  A    between atoms: _103  and  _104
REMARK   45  A    between atoms: _103  and  _106
REMARK   46  A    between atoms: _106  and  _107
REMARK   47  A    between atoms: _107  and  _108
REMARK   48  A    between atoms: _110  and  _112
REMARK   49  A    between atoms: _112  and  _113
REMARK   50  A    between atoms: _112  and  _115
REMARK   51  A    between atoms: _118  and  _120
REMARK   52  A    between atoms: _120  and  _121
REMARK   53  A    between atoms: _123  and  _125
REMARK   54  A    between atoms: _125  and  _126
REMARK   55  A    between atoms: _128  and  _130
REMARK   56  A    between atoms: _130  and  _131
REMARK   57  A    between atoms: _130  and  _133
REMARK   58  A    between atoms: _133  and  _134
REMARK   59  A    between atoms: _137  and  _139
REMARK   60  A    between atoms: _139  and  _140
REMARK   61  A    between atoms: _142  and  _144
REMARK   62  A    between atoms: _144  and  _145
REMARK   63  A    between atoms: _147  and  _149
REMARK   64  A    between atoms: _149  and  _150
REMARK   65  A    between atoms: _149  and  _152
REMARK   66  A    between atoms: _152  and  _153
REMARK   67  A    between atoms: _153  and  _154
REMARK   68  A    between atoms: _156  and  _158
REMARK   69  A    between atoms: _158  and  _159
REMARK   70  A    between atoms: _158  and  _161
REMARK   71  A    between atoms: _161  and  _162
REMARK   72  A    between atoms: _165  and  _167
REMARK   73  A    between atoms: _167  and  _168
REMARK   74  A    between atoms: _167  and  _170
REMARK   75  A    between atoms: _170  and  _171
REMARK   76  A    between atoms: _175  and  _176
REMARK   77  A    between atoms: _181  and  _183
REMARK   78  A    between atoms: _183  and  _184
REMARK   79  A    between atoms: _183  and  _186
REMARK   80  A    between atoms: _186  and  _187
REMARK   81  A    between atoms: _190  and  _192
REMARK   82  A    between atoms: _192  and  _193
REMARK   83  A    between atoms: _192  and  _195
REMARK   84  A    between atoms: _195  and  _196
REMARK   85  A    between atoms: _201  and  _203
REMARK   86  A    between atoms: _203  and  _204
REMARK   87  A    between atoms: _203  and  _206
REMARK   88  A    between atoms: _206  and  _207
REMARK   89  A    between atoms: _210  and  _212
REMARK   90  A    between atoms: _212  and  _213
REMARK   91  A    between atoms: _212  and  _215
REMARK   92  A    between atoms: _215  and  _216
REMARK   93  A    between atoms: _219  and  _221
REMARK   94  A    between atoms: _221  and  _222
REMARK   95  A    between atoms: _224  and  _226
REMARK   96  A    between atoms: _226  and  _227
REMARK   97  A    between atoms: _226  and  _229
REMARK   98  A    between atoms: _229  and  _230
REMARK   99  A    between atoms: _230  and  _231
REMARK  100  A    between atoms: _231  and  _232
REMARK  101  A    between atoms: _241  and  _243
REMARK  102  A    between atoms: _243  and  _244
REMARK  103  A    between atoms: _243  and  _246
REMARK  104  A    between atoms: _246  and  _247
REMARK  105  A    between atoms: _252  and  _254
REMARK  106  A    between atoms: _254  and  _255
REMARK  107  A    between atoms: _254  and  _257
REMARK  108  A    between atoms: _257  and  _258
REMARK  109  A    between atoms: _258  and  _259
REMARK  110  A    between atoms: _259  and  _260
REMARK  111  A    between atoms: _269  and  _271
REMARK  112  A    between atoms: _271  and  _272
REMARK  113  A    between atoms: _271  and  _274
REMARK  114  A    between atoms: _274  and  _275
REMARK  115  A    between atoms: _278  and  _280
REMARK  116  A    between atoms: _280  and  _281
REMARK  117  A    between atoms: _280  and  _283
REMARK  118  A    between atoms: _283  and  _284
REMARK  119  A    between atoms: _287  and  _289
REMARK  120  A    between atoms: _289  and  _290
REMARK  121  A    between atoms: _289  and  _292
REMARK  122  A    between atoms: _292  and  _293
REMARK  123  A    between atoms: _296  and  _298
REMARK  124  A    between atoms: _298  and  _299
REMARK  125  A    between atoms: _298  and  _301
REMARK  126  A    between atoms: _301  and  _302
REMARK  127  A    between atoms: _305  and  _307
REMARK  128  A    between atoms: _307  and  _308
REMARK  129  A    between atoms: _310  and  _312
REMARK  130  A    between atoms: _312  and  _313
REMARK  131  A    between atoms: _316  and  _318
REMARK  132  A    between atoms: _318  and  _319
REMARK  133  A    between atoms: _318  and  _321
REMARK  134  A    between atoms: _321  and  _322
REMARK  135  A    between atoms: _325  and  _327
REMARK  136  A    between atoms: _327  and  _328
REMARK  137  A    between atoms: _327  and  _330
REMARK  138  A    between atoms: _330  and  _331
REMARK  139  A    between atoms: _334  and  _336
REMARK  140  A    between atoms: _336  and  _337
REMARK  141  A    between atoms: _336  and  _339
REMARK  142  A    between atoms: _339  and  _340
REMARK  143  A    between atoms: _343  and  _345
REMARK  144  A    between atoms: _345  and  _346
REMARK  145  A    between atoms: _345  and  _348
REMARK  146  A    between atoms: _348  and  _349
REMARK  147  A    between atoms: _352  and  _354
REMARK  148  A    between atoms: _354  and  _355
REMARK  149  A    between atoms: _354  and  _357
REMARK  150  A    between atoms: _357  and  _358
REMARK  151  A    between atoms: _358  and  _359
REMARK  152  A    between atoms: _361  and  _363
REMARK  153  A    between atoms: _363  and  _364
REMARK  154  A    between atoms: _363  and  _366
REMARK  155  A    between atoms: _369  and  _371
REMARK  156  A    between atoms: _371  and  _372
REMARK  157  A    between atoms: _374  and  _376
REMARK  158  A    between atoms: _376  and  _377
REMARK  159  A    between atoms: _379  and  _381
REMARK  160  A    between atoms: _381  and  _382
REMARK  161  A    between atoms: _381  and  _384
REMARK  162  A    between atoms: _384  and  _385
REMARK  163  A    between atoms: _388  and  _390
REMARK  164  A    between atoms: _390  and  _391
REMARK  165  A    between atoms: _393  and  _395
REMARK  166  A    between atoms: _395  and  _396
REMARK  167  A    between atoms: _398  and  _400
REMARK  168  A    between atoms: _400  and  _401
REMARK  169  A    between atoms: _400  and  _403
REMARK  170  A    between atoms: _403  and  _404
REMARK  171  A    between atoms: _404  and  _405
REMARK  172  A    between atoms: _407  and  _409
REMARK  173  A    between atoms: _409  and  _410
REMARK  174  A    between atoms: _409  and  _412
REMARK  175  A    between atoms: _412  and  _413
REMARK  176  A    between atoms: _417  and  _418
REMARK  177  A    between atoms: _423  and  _425
REMARK  178  A    between atoms: _425  and  _426
REMARK  179  A    between atoms: _425  and  _428
REMARK  180  A    between atoms: _428  and  _429
REMARK  181  A    between atoms: _433  and  _434
REMARK  182  A    between atoms: _439  and  _441
REMARK  183  A    between atoms: _441  and  _442
REMARK  184  A    between atoms: _441  and  _444
REMARK  185  A    between atoms: _444  and  _445
REMARK  186  A    between atoms: _448  and  _450
REMARK  187  A    between atoms: _450  and  _451
REMARK  188  A    between atoms: _450  and  _453
REMARK  189  A    between atoms: _453  and  _454
REMARK  190  A    between atoms: _459  and  _461
REMARK  191  A    between atoms: _461  and  _462
REMARK  192  A    between atoms: _461  and  _464
REMARK  193  A    between atoms: _464  and  _465
REMARK  194  A    between atoms: _468  and  _470
REMARK  195  A    between atoms: _470  and  _471
REMARK  196  A    between atoms: _470  and  _473
REMARK  197  A    between atoms: _473  and  _474
REMARK  198  A    between atoms: _477  and  _479
REMARK  199  A    between atoms: _479  and  _480
REMARK  200  A    between atoms: _482  and  _484
REMARK  201  A    between atoms: _484  and  _485
REMARK  202  A    between atoms: _484  and  _487
REMARK  203  A    between atoms: _487  and  _488
REMARK  204  A    between atoms: _488  and  _489
REMARK  205  A    between atoms: _489  and  _490
REMARK  206  A    between atoms: _499  and  _501
REMARK  207  A    between atoms: _501  and  _502
REMARK  208  A    between atoms: _501  and  _504
REMARK  209  A    between atoms: _504  and  _505
REMARK                            x       y       z     vdW  Elec       q    Type
REMARK                         _______ _______ _______ _____ _____    ______ ____
ROOT
ATOM      1  O   HOH     1     -11.037  11.045  35.186  0.00  0.00    +0.000 OA
ENDROOT
TORSDOF 0
REMARK  Name = ../refined-set-2016/3ttp/3ttp_pocket.pdb
REMARK  209 active torsions:
REMARK  status: ('A' for Active; 'I' for Inactive)
REMARK    1  A    between atoms: _1  and  _3
REMARK    2  A    between atoms: _3  and  _4
REMARK    3  A    between atoms: _3  and  _6
REMARK    4  A    between atoms: _6  and  _7
REMARK    5  A    between atoms: _7  and  _8
REMARK    6  A    between atoms: _8  and  _9
REMARK    7  A    between atoms: _18  and  _20
REMARK    8  A    between atoms: _20  and  _21
REMARK    9  A    between atoms: _20  and  _23
REMARK   10  A    between atoms: _23  and  _24
REMARK   11  A    between atoms: _27  and  _29
REMARK   12  A    between atoms: _29  and  _30
REMARK   13  A    between atoms: _29  and  _32
REMARK   14  A    between atoms: _32  and  _33
REMARK   15  A    between atoms: _36  and  _38
REMARK   16  A    between atoms: _38  and  _39
REMARK   17  A    between atoms: _38  and  _41
REMARK   18  A    between atoms: _41  and  _42
REMARK   19  A    between atoms: _45  and  _47
REMARK   20  A    between atoms: _47  and  _48
REMARK   21  A    between atoms: _47  and  _50
REMARK   22  A    between atoms: _50  and  _51
REMARK   23  A    between atoms: _54  and  _56
REMARK   24  A    between atoms: _56  and  _57
REMARK   25  A    between atoms: _59  and  _61
REMARK   26  A    between atoms: _61  and  _62
REMARK   27  A    between atoms: _65  and  _67
REMARK   28  A    between atoms: _67  and  _68
REMARK   29  A    between atoms: _67  and  _70
REMARK   30  A    between atoms: _70  and  _71
REMARK   31  A    between atoms: _74  and  _76
REMARK   32  A    between atoms: _76  and  _77
REMARK   33  A    between atoms: _76  and  _79
REMARK   34  A    between atoms: _79  and  _80
REMARK   35  A    between atoms: _83  and  _85
REMARK   36  A    between atoms: _85  and  _86
REMARK   37  A    between atoms: _85  and  _88
REMARK   38  A    between atoms: _88  and  _89
REMARK   39  A    between atoms: _92  and  _94
REMARK   40  A    between atoms: _94  and  _95
REMARK   41  A    between atoms: _94  and  _97
REMARK   42  A    between atoms: _97  and  _98
REMARK   43  A    between atoms: _101  and  _103
REMARK   44  A    between atoms: _103  and  _104
REMARK   45  A    between atoms: _103  and  _106
REMARK   46  A    between atoms: _106  and  _107
REMARK   47  A    between atoms: _107  and  _108
REMARK   48  A    between atoms: _110  and  _112
REMARK   49  A    between atoms: _112  and  _113
REMARK   50  A    between atoms: _112  and  _115
REMARK   51  A    between atoms: _118  and  _120
REMARK   52  A    between atoms: _120  and  _121
REMARK   53  A    between atoms: _123  and  _125
REMARK   54  A    between atoms: _125  and  _126
REMARK   55  A    between atoms: _128  and  _130
REMARK   56  A    between atoms: _130  and  _131
REMARK   57  A    between atoms: _130  and  _133
REMARK   58  A    between atoms: _133  and  _134
REMARK   59  A    between atoms: _137  and  _139
REMARK   60  A    between atoms: _139  and  _140
REMARK   61  A    between atoms: _142  and  _144
REMARK   62  A    between atoms: _144  and  _145
REMARK   63  A    between atoms: _147  and  _149
REMARK   64  A    between atoms: _149  and  _150
REMARK   65  A    between atoms: _149  and  _152
REMARK   66  A    between atoms: _152  and  _153
REMARK   67  A    between atoms: _153  and  _154
REMARK   68  A    between atoms: _156  and  _158
REMARK   69  A    between atoms: _158  and  _159
REMARK   70  A    between atoms: _158  and  _161
REMARK   71  A    between atoms: _161  and  _162
REMARK   72  A    between atoms: _165  and  _167
REMARK   73  A    between atoms: _167  and  _168
REMARK   74  A    between atoms: _167  and  _170
REMARK   75  A    between atoms: _170  and  _171
REMARK   76  A    between atoms: _175  and  _176
REMARK   77  A    between atoms: _181  and  _183
REMARK   78  A    between atoms: _183  and  _184
REMARK   79  A    between atoms: _183  and  _186
REMARK   80  A    between atoms: _186  and  _187
REMARK   81  A    between atoms: _190  and  _192
REMARK   82  A    between atoms: _192  and  _193
REMARK   83  A    between atoms: _192  and  _195
REMARK   84  A    between atoms: _195  and  _196
REMARK   85  A    between atoms: _201  and  _203
REMARK   86  A    between atoms: _203  and  _204
REMARK   87  A    between atoms: _203  and  _206
REMARK   88  A    between atoms: _206  and  _207
REMARK   89  A    between atoms: _210  and  _212
REMARK   90  A    between atoms: _212  and  _213
REMARK   91  A    between atoms: _212  and  _215
REMARK   92  A    between atoms: _215  and  _216
REMARK   93  A    between atoms: _219  and  _221
REMARK   94  A    between atoms: _221  and  _222
REMARK   95  A    between atoms: _224  and  _226
REMARK   96  A    between atoms: _226  and  _227
REMARK   97  A    between atoms: _226  and  _229
REMARK   98  A    between atoms: _229  and  _230
REMARK   99  A    between atoms: _230  and  _231
REMARK  100  A    between atoms: _231  and  _232
REMARK  101  A    between atoms: _241  and  _243
REMARK  102  A    between atoms: _243  and  _244
REMARK  103  A    between atoms: _243  and  _246
REMARK  104  A    between atoms: _246  and  _247
REMARK  105  A    between atoms: _252  and  _254
REMARK  106  A    between atoms: _254  and  _255
REMARK  107  A    between atoms: _254  and  _257
REMARK  108  A    between atoms: _257  and  _258
REMARK  109  A    between atoms: _258  and  _259
REMARK  110  A    between atoms: _259  and  _260
REMARK  111  A    between atoms: _269  and  _271
REMARK  112  A    between atoms: _271  and  _272
REMARK  113  A    between atoms: _271  and  _274
REMARK  114  A    between atoms: _274  and  _275
REMARK  115  A    between atoms: _278  and  _280
REMARK  116  A    between atoms: _280  and  _281
REMARK  117  A    between atoms: _280  and  _283
REMARK  118  A    between atoms: _283  and  _284
REMARK  119  A    between atoms: _287  and  _289
REMARK  120  A    between atoms: _289  and  _290
REMARK  121  A    between atoms: _289  and  _292
REMARK  122  A    between atoms: _292  and  _293
REMARK  123  A    between atoms: _296  and  _298
REMARK  124  A    between atoms: _298  and  _299
REMARK  125  A    between atoms: _298  and  _301
REMARK  126  A    between atoms: _301  and  _302
REMARK  127  A    between atoms: _305  and  _307
REMARK  128  A    between atoms: _307  and  _308
REMARK  129  A    between atoms: _310  and  _312
REMARK  130  A    between atoms: _312  and  _313
REMARK  131  A    between atoms: _316  and  _318
REMARK  132  A    between atoms: _318  and  _319
REMARK  133  A    between atoms: _318  and  _321
REMARK  134  A    between atoms: _321  and  _322
REMARK  135  A    between atoms: _325  and  _327
REMARK  136  A    between atoms: _327  and  _328
REMARK  137  A    between atoms: _327  and  _330
REMARK  138  A    between atoms: _330  and  _331
REMARK  139  A    between atoms: _334  and  _336
REMARK  140  A    between atoms: _336  and  _337
REMARK  141  A    between atoms: _336  and  _339
REMARK  142  A    between atoms: _339  and  _340
REMARK  143  A    between atoms: _343  and  _345
REMARK  144  A    between atoms: _345  and  _346
REMARK  145  A    between atoms: _345  and  _348
REMARK  146  A    between atoms: _348  and  _349
REMARK  147  A    between atoms: _352  and  _354
REMARK  148  A    between atoms: _354  and  _355
REMARK  149  A    between atoms: _354  and  _357
REMARK  150  A    between atoms: _357  and  _358
REMARK  151  A    between atoms: _358  and  _359
REMARK  152  A    between atoms: _361  and  _363
REMARK  153  A    between atoms: _363  and  _364
REMARK  154  A    between atoms: _363  and  _366
REMARK  155  A    between atoms: _369  and  _371
REMARK  156  A    between atoms: _371  and  _372
REMARK  157  A    between atoms: _374  and  _376
REMARK  158  A    between atoms: _376  and  _377
REMARK  159  A    between atoms: _379  and  _381
REMARK  160  A    between atoms: _381  and  _382
REMARK  161  A    between atoms: _381  and  _384
REMARK  162  A    between atoms: _384  and  _385
REMARK  163  A    between atoms: _388  and  _390
REMARK  164  A    between atoms: _390  and  _391
REMARK  165  A    between atoms: _393  and  _395
REMARK  166  A    between atoms: _395  and  _396
REMARK  167  A    between atoms: _398  and  _400
REMARK  168  A    between atoms: _400  and  _401
REMARK  169  A    between atoms: _400  and  _403
REMARK  170  A    between atoms: _403  and  _404
REMARK  171  A    between atoms: _404  and  _405
REMARK  172  A    between atoms: _407  and  _409
REMARK  173  A    between atoms: _409  and  _410
REMARK  174  A    between atoms: _409  and  _412
REMARK  175  A    between atoms: _412  and  _413
REMARK  176  A    between atoms: _417  and  _418
REMARK  177  A    between atoms: _423  and  _425
REMARK  178  A    between atoms: _425  and  _426
REMARK  179  A    between atoms: _425  and  _428
REMARK  180  A    between atoms: _428  and  _429
REMARK  181  A    between atoms: _433  and  _434
REMARK  182  A    between atoms: _439  and  _441
REMARK  183  A    between atoms: _441  and  _442
REMARK  184  A    between atoms: _441  and  _444
REMARK  185  A    between atoms: _444  and  _445
REMARK  186  A    between atoms: _448  and  _450
REMARK  187  A    between atoms: _450  and  _451
REMARK  188  A    between atoms: _450  and  _453
REMARK  189  A    between atoms: _453  and  _454
REMARK  190  A    between atoms: _459  and  _461
REMARK  191  A    between atoms: _461  and  _462
REMARK  192  A    between atoms: _461  and  _464
REMARK  193  A    between atoms: _464  and  _465
REMARK  194  A    between atoms: _468  and  _470
REMARK  195  A    between atoms: _470  and  _471
REMARK  196  A    between atoms: _470  and  _473
REMARK  197  A    between atoms: _473  and  _474
REMARK  198  A    between atoms: _477  and  _479
REMARK  199  A    between atoms: _479  and  _480
REMARK  200  A    between atoms: _482  and  _484
REMARK  201  A    between atoms: _484  and  _485
REMARK  202  A    between atoms: _484  and  _487
REMARK  203  A    between atoms: _487  and  _488
REMARK  204  A    between atoms: _488  and  _489
REMARK  205  A    between atoms: _489  and  _490
REMARK  206  A    between atoms: _499  and  _501
REMARK  207  A    between atoms: _501  and  _502
REMARK  208  A    between atoms: _501  and  _504
REMARK  209  A    between atoms: _504  and  _505
REMARK                            x       y       z     vdW  Elec       q    Type
REMARK                         _______ _______ _______ _____ _____    ______ ____
ROOT
ATOM      1  O   HOH     1     -16.704  18.962  31.723  0.00  0.00    +0.000 OA
ENDROOT
TORSDOF 0
REMARK  Name = ../refined-set-2016/3ttp/3ttp_pocket.pdb
REMARK  209 active torsions:
REMARK  status: ('A' for Active; 'I' for Inactive)
REMARK    1  A    between atoms: _1  and  _3
REMARK    2  A    between atoms: _3  and  _4
REMARK    3  A    between atoms: _3  and  _6
REMARK    4  A    between atoms: _6  and  _7
REMARK    5  A    between atoms: _7  and  _8
REMARK    6  A    between atoms: _8  and  _9
REMARK    7  A    between atoms: _18  and  _20
REMARK    8  A    between atoms: _20  and  _21
REMARK    9  A    between atoms: _20  and  _23
REMARK   10  A    between atoms: _23  and  _24
REMARK   11  A    between atoms: _27  and  _29
REMARK   12  A    between atoms: _29  and  _30
REMARK   13  A    between atoms: _29  and  _32
REMARK   14  A    between atoms: _32  and  _33
REMARK   15  A    between atoms: _36  and  _38
REMARK   16  A    between atoms: _38  and  _39
REMARK   17  A    between atoms: _38  and  _41
REMARK   18  A    between atoms: _41  and  _42
REMARK   19  A    between atoms: _45  and  _47
REMARK   20  A    between atoms: _47  and  _48
REMARK   21  A    between atoms: _47  and  _50
REMARK   22  A    between atoms: _50  and  _51
REMARK   23  A    between atoms: _54  and  _56
REMARK   24  A    between atoms: _56  and  _57
REMARK   25  A    between atoms: _59  and  _61
REMARK   26  A    between atoms: _61  and  _62
REMARK   27  A    between atoms: _65  and  _67
REMARK   28  A    between atoms: _67  and  _68
REMARK   29  A    between atoms: _67  and  _70
REMARK   30  A    between atoms: _70  and  _71
REMARK   31  A    between atoms: _74  and  _76
REMARK   32  A    between atoms: _76  and  _77
REMARK   33  A    between atoms: _76  and  _79
REMARK   34  A    between atoms: _79  and  _80
REMARK   35  A    between atoms: _83  and  _85
REMARK   36  A    between atoms: _85  and  _86
REMARK   37  A    between atoms: _85  and  _88
REMARK   38  A    between atoms: _88  and  _89
REMARK   39  A    between atoms: _92  and  _94
REMARK   40  A    between atoms: _94  and  _95
REMARK   41  A    between atoms: _94  and  _97
REMARK   42  A    between atoms: _97  and  _98
REMARK   43  A    between atoms: _101  and  _103
REMARK   44  A    between atoms: _103  and  _104
REMARK   45  A    between atoms: _103  and  _106
REMARK   46  A    between atoms: _106  and  _107
REMARK   47  A    between atoms: _107  and  _108
REMARK   48  A    between atoms: _110  and  _112
REMARK   49  A    between atoms: _112  and  _113
REMARK   50  A    between atoms: _112  and  _115
REMARK   51  A    between atoms: _118  and  _120
REMARK   52  A    between atoms: _120  and  _121
REMARK   53  A    between atoms: _123  and  _125
REMARK   54  A    between atoms: _125  and  _126
REMARK   55  A    between atoms: _128  and  _130
REMARK   56  A    between atoms: _130  and  _131
REMARK   57  A    between atoms: _130  and  _133
REMARK   58  A    between atoms: _133  and  _134
REMARK   59  A    between atoms: _137  and  _139
REMARK   60  A    between atoms: _139  and  _140
REMARK   61  A    between atoms: _142  and  _144
REMARK   62  A    between atoms: _144  and  _145
REMARK   63  A    between atoms: _147  and  _149
REMARK   64  A    between atoms: _149  and  _150
REMARK   65  A    between atoms: _149  and  _152
REMARK   66  A    between atoms: _152  and  _153
REMARK   67  A    between atoms: _153  and  _154
REMARK   68  A    between atoms: _156  and  _158
REMARK   69  A    between atoms: _158  and  _159
REMARK   70  A    between atoms: _158  and  _161
REMARK   71  A    between atoms: _161  and  _162
REMARK   72  A    between atoms: _165  and  _167
REMARK   73  A    between atoms: _167  and  _168
REMARK   74  A    between atoms: _167  and  _170
REMARK   75  A    between atoms: _170  and  _171
REMARK   76  A    between atoms: _175  and  _176
REMARK   77  A    between atoms: _181  and  _183
REMARK   78  A    between atoms: _183  and  _184
REMARK   79  A    between atoms: _183  and  _186
REMARK   80  A    between atoms: _186  and  _187
REMARK   81  A    between atoms: _190  and  _192
REMARK   82  A    between atoms: _192  and  _193
REMARK   83  A    between atoms: _192  and  _195
REMARK   84  A    between atoms: _195  and  _196
REMARK   85  A    between atoms: _201  and  _203
REMARK   86  A    between atoms: _203  and  _204
REMARK   87  A    between atoms: _203  and  _206
REMARK   88  A    between atoms: _206  and  _207
REMARK   89  A    between atoms: _210  and  _212
REMARK   90  A    between atoms: _212  and  _213
REMARK   91  A    between atoms: _212  and  _215
REMARK   92  A    between atoms: _215  and  _216
REMARK   93  A    between atoms: _219  and  _221
REMARK   94  A    between atoms: _221  and  _222
REMARK   95  A    between atoms: _224  and  _226
REMARK   96  A    between atoms: _226  and  _227
REMARK   97  A    between atoms: _226  and  _229
REMARK   98  A    between atoms: _229  and  _230
REMARK   99  A    between atoms: _230  and  _231
REMARK  100  A    between atoms: _231  and  _232
REMARK  101  A    between atoms: _241  and  _243
REMARK  102  A    between atoms: _243  and  _244
REMARK  103  A    between atoms: _243  and  _246
REMARK  104  A    between atoms: _246  and  _247
REMARK  105  A    between atoms: _252  and  _254
REMARK  106  A    between atoms: _254  and  _255
REMARK  107  A    between atoms: _254  and  _257
REMARK  108  A    between atoms: _257  and  _258
REMARK  109  A    between atoms: _258  and  _259
REMARK  110  A    between atoms: _259  and  _260
REMARK  111  A    between atoms: _269  and  _271
REMARK  112  A    between atoms: _271  and  _272
REMARK  113  A    between atoms: _271  and  _274
REMARK  114  A    between atoms: _274  and  _275
REMARK  115  A    between atoms: _278  and  _280
REMARK  116  A    between atoms: _280  and  _281
REMARK  117  A    between atoms: _280  and  _283
REMARK  118  A    between atoms: _283  and  _284
REMARK  119  A    between atoms: _287  and  _289
REMARK  120  A    between atoms: _289  and  _290
REMARK  121  A    between atoms: _289  and  _292
REMARK  122  A    between atoms: _292  and  _293
REMARK  123  A    between atoms: _296  and  _298
REMARK  124  A    between atoms: _298  and  _299
REMARK  125  A    between atoms: _298  and  _301
REMARK  126  A    between atoms: _301  and  _302
REMARK  127  A    between atoms: _305  and  _307
REMARK  128  A    between atoms: _307  and  _308
REMARK  129  A    between atoms: _310  and  _312
REMARK  130  A    between atoms: _312  and  _313
REMARK  131  A    between atoms: _316  and  _318
REMARK  132  A    between atoms: _318  and  _319
REMARK  133  A    between atoms: _318  and  _321
REMARK  134  A    between atoms: _321  and  _322
REMARK  135  A    between atoms: _325  and  _327
REMARK  136  A    between atoms: _327  and  _328
REMARK  137  A    between atoms: _327  and  _330
REMARK  138  A    between atoms: _330  and  _331
REMARK  139  A    between atoms: _334  and  _336
REMARK  140  A    between atoms: _336  and  _337
REMARK  141  A    between atoms: _336  and  _339
REMARK  142  A    between atoms: _339  and  _340
REMARK  143  A    between atoms: _343  and  _345
REMARK  144  A    between atoms: _345  and  _346
REMARK  145  A    between atoms: _345  and  _348
REMARK  146  A    between atoms: _348  and  _349
REMARK  147  A    between atoms: _352  and  _354
REMARK  148  A    between atoms: _354  and  _355
REMARK  149  A    between atoms: _354  and  _357
REMARK  150  A    between atoms: _357  and  _358
REMARK  151  A    between atoms: _358  and  _359
REMARK  152  A    between atoms: _361  and  _363
REMARK  153  A    between atoms: _363  and  _364
REMARK  154  A    between atoms: _363  and  _366
REMARK  155  A    between atoms: _369  and  _371
REMARK  156  A    between atoms: _371  and  _372
REMARK  157  A    between atoms: _374  and  _376
REMARK  158  A    between atoms: _376  and  _377
REMARK  159  A    between atoms: _379  and  _381
REMARK  160  A    between atoms: _381  and  _382
REMARK  161  A    between atoms: _381  and  _384
REMARK  162  A    between atoms: _384  and  _385
REMARK  163  A    between atoms: _388  and  _390
REMARK  164  A    between atoms: _390  and  _391
REMARK  165  A    between atoms: _393  and  _395
REMARK  166  A    between atoms: _395  and  _396
REMARK  167  A    between atoms: _398  and  _400
REMARK  168  A    between atoms: _400  and  _401
REMARK  169  A    between atoms: _400  and  _403
REMARK  170  A    between atoms: _403  and  _404
REMARK  171  A    between atoms: _404  and  _405
REMARK  172  A    between atoms: _407  and  _409
REMARK  173  A    between atoms: _409  and  _410
REMARK  174  A    between atoms: _409  and  _412
REMARK  175  A    between atoms: _412  and  _413
REMARK  176  A    between atoms: _417  and  _418
REMARK  177  A    between atoms: _423  and  _425
REMARK  178  A    between atoms: _425  and  _426
REMARK  179  A    between atoms: _425  and  _428
REMARK  180  A    between atoms: _428  and  _429
REMARK  181  A    between atoms: _433  and  _434
REMARK  182  A    between atoms: _439  and  _441
REMARK  183  A    between atoms: _441  and  _442
REMARK  184  A    between atoms: _441  and  _444
REMARK  185  A    between atoms: _444  and  _445
REMARK  186  A    between atoms: _448  and  _450
REMARK  187  A    between atoms: _450  and  _451
REMARK  188  A    between atoms: _450  and  _453
REMARK  189  A    between atoms: _453  and  _454
REMARK  190  A    between atoms: _459  and  _461
REMARK  191  A    between atoms: _461  and  _462
REMARK  192  A    between atoms: _461  and  _464
REMARK  193  A    between atoms: _464  and  _465
REMARK  194  A    between atoms: _468  and  _470
REMARK  195  A    between atoms: _470  and  _471
REMARK  196  A    between atoms: _470  and  _473
REMARK  197  A    between atoms: _473  and  _474
REMARK  198  A    between atoms: _477  and  _479
REMARK  199  A    between atoms: _479  and  _480
REMARK  200  A    between atoms: _482  and  _484
REMARK  201  A    between atoms: _484  and  _485
REMARK  202  A    between atoms: _484  and  _487
REMARK  203  A    between atoms: _487  and  _488
REMARK  204  A    between atoms: _488  and  _489
REMARK  205  A    between atoms: _489  and  _490
REMARK  206  A    between atoms: _499  and  _501
REMARK  207  A    between atoms: _501  and  _502
REMARK  208  A    between atoms: _501  and  _504
REMARK  209  A    between atoms: _504  and  _505
REMARK                            x       y       z     vdW  Elec       q    Type
REMARK                         _______ _______ _______ _____ _____    ______ ____
ROOT
ATOM      1  O   HOH     1     -14.474  15.202  39.571  0.00  0.00    +0.000 OA
ENDROOT
TORSDOF 0
REMARK  Name = ../refined-set-2016/3ttp/3ttp_pocket.pdb
REMARK  209 active torsions:
REMARK  status: ('A' for Active; 'I' for Inactive)
REMARK    1  A    between atoms: _1  and  _3
REMARK    2  A    between atoms: _3  and  _4
REMARK    3  A    between atoms: _3  and  _6
REMARK    4  A    between atoms: _6  and  _7
REMARK    5  A    between atoms: _7  and  _8
REMARK    6  A    between atoms: _8  and  _9
REMARK    7  A    between atoms: _18  and  _20
REMARK    8  A    between atoms: _20  and  _21
REMARK    9  A    between atoms: _20  and  _23
REMARK   10  A    between atoms: _23  and  _24
REMARK   11  A    between atoms: _27  and  _29
REMARK   12  A    between atoms: _29  and  _30
REMARK   13  A    between atoms: _29  and  _32
REMARK   14  A    between atoms: _32  and  _33
REMARK   15  A    between atoms: _36  and  _38
REMARK   16  A    between atoms: _38  and  _39
REMARK   17  A    between atoms: _38  and  _41
REMARK   18  A    between atoms: _41  and  _42
REMARK   19  A    between atoms: _45  and  _47
REMARK   20  A    between atoms: _47  and  _48
REMARK   21  A    between atoms: _47  and  _50
REMARK   22  A    between atoms: _50  and  _51
REMARK   23  A    between atoms: _54  and  _56
REMARK   24  A    between atoms: _56  and  _57
REMARK   25  A    between atoms: _59  and  _61
REMARK   26  A    between atoms: _61  and  _62
REMARK   27  A    between atoms: _65  and  _67
REMARK   28  A    between atoms: _67  and  _68
REMARK   29  A    between atoms: _67  and  _70
REMARK   30  A    between atoms: _70  and  _71
REMARK   31  A    between atoms: _74  and  _76
REMARK   32  A    between atoms: _76  and  _77
REMARK   33  A    between atoms: _76  and  _79
REMARK   34  A    between atoms: _79  and  _80
REMARK   35  A    between atoms: _83  and  _85
REMARK   36  A    between atoms: _85  and  _86
REMARK   37  A    between atoms: _85  and  _88
REMARK   38  A    between atoms: _88  and  _89
REMARK   39  A    between atoms: _92  and  _94
REMARK   40  A    between atoms: _94  and  _95
REMARK   41  A    between atoms: _94  and  _97
REMARK   42  A    between atoms: _97  and  _98
REMARK   43  A    between atoms: _101  and  _103
REMARK   44  A    between atoms: _103  and  _104
REMARK   45  A    between atoms: _103  and  _106
REMARK   46  A    between atoms: _106  and  _107
REMARK   47  A    between atoms: _107  and  _108
REMARK   48  A    between atoms: _110  and  _112
REMARK   49  A    between atoms: _112  and  _113
REMARK   50  A    between atoms: _112  and  _115
REMARK   51  A    between atoms: _118  and  _120
REMARK   52  A    between atoms: _120  and  _121
REMARK   53  A    between atoms: _123  and  _125
REMARK   54  A    between atoms: _125  and  _126
REMARK   55  A    between atoms: _128  and  _130
REMARK   56  A    between atoms: _130  and  _131
REMARK   57  A    between atoms: _130  and  _133
REMARK   58  A    between atoms: _133  and  _134
REMARK   59  A    between atoms: _137  and  _139
REMARK   60  A    between atoms: _139  and  _140
REMARK   61  A    between atoms: _142  and  _144
REMARK   62  A    between atoms: _144  and  _145
REMARK   63  A    between atoms: _147  and  _149
REMARK   64  A    between atoms: _149  and  _150
REMARK   65  A    between atoms: _149  and  _152
REMARK   66  A    between atoms: _152  and  _153
REMARK   67  A    between atoms: _153  and  _154
REMARK   68  A    between atoms: _156  and  _158
REMARK   69  A    between atoms: _158  and  _159
REMARK   70  A    between atoms: _158  and  _161
REMARK   71  A    between atoms: _161  and  _162
REMARK   72  A    between atoms: _165  and  _167
REMARK   73  A    between atoms: _167  and  _168
REMARK   74  A    between atoms: _167  and  _170
REMARK   75  A    between atoms: _170  and  _171
REMARK   76  A    between atoms: _175  and  _176
REMARK   77  A    between atoms: _181  and  _183
REMARK   78  A    between atoms: _183  and  _184
REMARK   79  A    between atoms: _183  and  _186
REMARK   80  A    between atoms: _186  and  _187
REMARK   81  A    between atoms: _190  and  _192
REMARK   82  A    between atoms: _192  and  _193
REMARK   83  A    between atoms: _192  and  _195
REMARK   84  A    between atoms: _195  and  _196
REMARK   85  A    between atoms: _201  and  _203
REMARK   86  A    between atoms: _203  and  _204
REMARK   87  A    between atoms: _203  and  _206
REMARK   88  A    between atoms: _206  and  _207
REMARK   89  A    between atoms: _210  and  _212
REMARK   90  A    between atoms: _212  and  _213
REMARK   91  A    between atoms: _212  and  _215
REMARK   92  A    between atoms: _215  and  _216
REMARK   93  A    between atoms: _219  and  _221
REMARK   94  A    between atoms: _221  and  _222
REMARK   95  A    between atoms: _224  and  _226
REMARK   96  A    between atoms: _226  and  _227
REMARK   97  A    between atoms: _226  and  _229
REMARK   98  A    between atoms: _229  and  _230
REMARK   99  A    between atoms: _230  and  _231
REMARK  100  A    between atoms: _231  and  _232
REMARK  101  A    between atoms: _241  and  _243
REMARK  102  A    between atoms: _243  and  _244
REMARK  103  A    between atoms: _243  and  _246
REMARK  104  A    between atoms: _246  and  _247
REMARK  105  A    between atoms: _252  and  _254
REMARK  106  A    between atoms: _254  and  _255
REMARK  107  A    between atoms: _254  and  _257
REMARK  108  A    between atoms: _257  and  _258
REMARK  109  A    between atoms: _258  and  _259
REMARK  110  A    between atoms: _259  and  _260
REMARK  111  A    between atoms: _269  and  _271
REMARK  112  A    between atoms: _271  and  _272
REMARK  113  A    between atoms: _271  and  _274
REMARK  114  A    between atoms: _274  and  _275
REMARK  115  A    between atoms: _278  and  _280
REMARK  116  A    between atoms: _280  and  _281
REMARK  117  A    between atoms: _280  and  _283
REMARK  118  A    between atoms: _283  and  _284
REMARK  119  A    between atoms: _287  and  _289
REMARK  120  A    between atoms: _289  and  _290
REMARK  121  A    between atoms: _289  and  _292
REMARK  122  A    between atoms: _292  and  _293
REMARK  123  A    between atoms: _296  and  _298
REMARK  124  A    between atoms: _298  and  _299
REMARK  125  A    between atoms: _298  and  _301
REMARK  126  A    between atoms: _301  and  _302
REMARK  127  A    between atoms: _305  and  _307
REMARK  128  A    between atoms: _307  and  _308
REMARK  129  A    between atoms: _310  and  _312
REMARK  130  A    between atoms: _312  and  _313
REMARK  131  A    between atoms: _316  and  _318
REMARK  132  A    between atoms: _318  and  _319
REMARK  133  A    between atoms: _318  and  _321
REMARK  134  A    between atoms: _321  and  _322
REMARK  135  A    between atoms: _325  and  _327
REMARK  136  A    between atoms: _327  and  _328
REMARK  137  A    between atoms: _327  and  _330
REMARK  138  A    between atoms: _330  and  _331
REMARK  139  A    between atoms: _334  and  _336
REMARK  140  A    between atoms: _336  and  _337
REMARK  141  A    between atoms: _336  and  _339
REMARK  142  A    between atoms: _339  and  _340
REMARK  143  A    between atoms: _343  and  _345
REMARK  144  A    between atoms: _345  and  _346
REMARK  145  A    between atoms: _345  and  _348
REMARK  146  A    between atoms: _348  and  _349
REMARK  147  A    between atoms: _352  and  _354
REMARK  148  A    between atoms: _354  and  _355
REMARK  149  A    between atoms: _354  and  _357
REMARK  150  A    between atoms: _357  and  _358
REMARK  151  A    between atoms: _358  and  _359
REMARK  152  A    between atoms: _361  and  _363
REMARK  153  A    between atoms: _363  and  _364
REMARK  154  A    between atoms: _363  and  _366
REMARK  155  A    between atoms: _369  and  _371
REMARK  156  A    between atoms: _371  and  _372
REMARK  157  A    between atoms: _374  and  _376
REMARK  158  A    between atoms: _376  and  _377
REMARK  159  A    between atoms: _379  and  _381
REMARK  160  A    between atoms: _381  and  _382
REMARK  161  A    between atoms: _381  and  _384
REMARK  162  A    between atoms: _384  and  _385
REMARK  163  A    between atoms: _388  and  _390
REMARK  164  A    between atoms: _390  and  _391
REMARK  165  A    between atoms: _393  and  _395
REMARK  166  A    between atoms: _395  and  _396
REMARK  167  A    between atoms: _398  and  _400
REMARK  168  A    between atoms: _400  and  _401
REMARK  169  A    between atoms: _400  and  _403
REMARK  170  A    between atoms: _403  and  _404
REMARK  171  A    between atoms: _404  and  _405
REMARK  172  A    between atoms: _407  and  _409
REMARK  173  A    between atoms: _409  and  _410
REMARK  174  A    between atoms: _409  and  _412
REMARK  175  A    between atoms: _412  and  _413
REMARK  176  A    between atoms: _417  and  _418
REMARK  177  A    between atoms: _423  and  _425
REMARK  178  A    between atoms: _425  and  _426
REMARK  179  A    between atoms: _425  and  _428
REMARK  180  A    between atoms: _428  and  _429
REMARK  181  A    between atoms: _433  and  _434
REMARK  182  A    between atoms: _439  and  _441
REMARK  183  A    between atoms: _441  and  _442
REMARK  184  A    between atoms: _441  and  _444
REMARK  185  A    between atoms: _444  and  _445
REMARK  186  A    between atoms: _448  and  _450
REMARK  187  A    between atoms: _450  and  _451
REMARK  188  A    between atoms: _450  and  _453
REMARK  189  A    between atoms: _453  and  _454
REMARK  190  A    between atoms: _459  and  _461
REMARK  191  A    between atoms: _461  and  _462
REMARK  192  A    between atoms: _461  and  _464
REMARK  193  A    between atoms: _464  and  _465
REMARK  194  A    between atoms: _468  and  _470
REMARK  195  A    between atoms: _470  and  _471
REMARK  196  A    between atoms: _470  and  _473
REMARK  197  A    between atoms: _473  and  _474
REMARK  198  A    between atoms: _477  and  _479
REMARK  199  A    between atoms: _479  and  _480
REMARK  200  A    between atoms: _482  and  _484
REMARK  201  A    between atoms: _484  and  _485
REMARK  202  A    between atoms: _484  and  _487
REMARK  203  A    between atoms: _487  and  _488
REMARK  204  A    between atoms: _488  and  _489
REMARK  205  A    between atoms: _489  and  _490
REMARK  206  A    between atoms: _499  and  _501
REMARK  207  A    between atoms: _501  and  _502
REMARK  208  A    between atoms: _501  and  _504
REMARK  209  A    between atoms: _504  and  _505
REMARK                            x       y       z     vdW  Elec       q    Type
REMARK                         _______ _______ _______ _____ _____    ______ ____
ROOT
ATOM      1  O   HOH     1     -15.859  20.092  38.512  0.00  0.00    +0.000 OA
ENDROOT
TORSDOF 0
REMARK  Name = ../refined-set-2016/3ttp/3ttp_pocket.pdb
REMARK  209 active torsions:
REMARK  status: ('A' for Active; 'I' for Inactive)
REMARK    1  A    between atoms: _1  and  _3
REMARK    2  A    between atoms: _3  and  _4
REMARK    3  A    between atoms: _3  and  _6
REMARK    4  A    between atoms: _6  and  _7
REMARK    5  A    between atoms: _7  and  _8
REMARK    6  A    between atoms: _8  and  _9
REMARK    7  A    between atoms: _18  and  _20
REMARK    8  A    between atoms: _20  and  _21
REMARK    9  A    between atoms: _20  and  _23
REMARK   10  A    between atoms: _23  and  _24
REMARK   11  A    between atoms: _27  and  _29
REMARK   12  A    between atoms: _29  and  _30
REMARK   13  A    between atoms: _29  and  _32
REMARK   14  A    between atoms: _32  and  _33
REMARK   15  A    between atoms: _36  and  _38
REMARK   16  A    between atoms: _38  and  _39
REMARK   17  A    between atoms: _38  and  _41
REMARK   18  A    between atoms: _41  and  _42
REMARK   19  A    between atoms: _45  and  _47
REMARK   20  A    between atoms: _47  and  _48
REMARK   21  A    between atoms: _47  and  _50
REMARK   22  A    between atoms: _50  and  _51
REMARK   23  A    between atoms: _54  and  _56
REMARK   24  A    between atoms: _56  and  _57
REMARK   25  A    between atoms: _59  and  _61
REMARK   26  A    between atoms: _61  and  _62
REMARK   27  A    between atoms: _65  and  _67
REMARK   28  A    between atoms: _67  and  _68
REMARK   29  A    between atoms: _67  and  _70
REMARK   30  A    between atoms: _70  and  _71
REMARK   31  A    between atoms: _74  and  _76
REMARK   32  A    between atoms: _76  and  _77
REMARK   33  A    between atoms: _76  and  _79
REMARK   34  A    between atoms: _79  and  _80
REMARK   35  A    between atoms: _83  and  _85
REMARK   36  A    between atoms: _85  and  _86
REMARK   37  A    between atoms: _85  and  _88
REMARK   38  A    between atoms: _88  and  _89
REMARK   39  A    between atoms: _92  and  _94
REMARK   40  A    between atoms: _94  and  _95
REMARK   41  A    between atoms: _94  and  _97
REMARK   42  A    between atoms: _97  and  _98
REMARK   43  A    between atoms: _101  and  _103
REMARK   44  A    between atoms: _103  and  _104
REMARK   45  A    between atoms: _103  and  _106
REMARK   46  A    between atoms: _106  and  _107
REMARK   47  A    between atoms: _107  and  _108
REMARK   48  A    between atoms: _110  and  _112
REMARK   49  A    between atoms: _112  and  _113
REMARK   50  A    between atoms: _112  and  _115
REMARK   51  A    between atoms: _118  and  _120
REMARK   52  A    between atoms: _120  and  _121
REMARK   53  A    between atoms: _123  and  _125
REMARK   54  A    between atoms: _125  and  _126
REMARK   55  A    between atoms: _128  and  _130
REMARK   56  A    between atoms: _130  and  _131
REMARK   57  A    between atoms: _130  and  _133
REMARK   58  A    between atoms: _133  and  _134
REMARK   59  A    between atoms: _137  and  _139
REMARK   60  A    between atoms: _139  and  _140
REMARK   61  A    between atoms: _142  and  _144
REMARK   62  A    between atoms: _144  and  _145
REMARK   63  A    between atoms: _147  and  _149
REMARK   64  A    between atoms: _149  and  _150
REMARK   65  A    between atoms: _149  and  _152
REMARK   66  A    between atoms: _152  and  _153
REMARK   67  A    between atoms: _153  and  _154
REMARK   68  A    between atoms: _156  and  _158
REMARK   69  A    between atoms: _158  and  _159
REMARK   70  A    between atoms: _158  and  _161
REMARK   71  A    between atoms: _161  and  _162
REMARK   72  A    between atoms: _165  and  _167
REMARK   73  A    between atoms: _167  and  _168
REMARK   74  A    between atoms: _167  and  _170
REMARK   75  A    between atoms: _170  and  _171
REMARK   76  A    between atoms: _175  and  _176
REMARK   77  A    between atoms: _181  and  _183
REMARK   78  A    between atoms: _183  and  _184
REMARK   79  A    between atoms: _183  and  _186
REMARK   80  A    between atoms: _186  and  _187
REMARK   81  A    between atoms: _190  and  _192
REMARK   82  A    between atoms: _192  and  _193
REMARK   83  A    between atoms: _192  and  _195
REMARK   84  A    between atoms: _195  and  _196
REMARK   85  A    between atoms: _201  and  _203
REMARK   86  A    between atoms: _203  and  _204
REMARK   87  A    between atoms: _203  and  _206
REMARK   88  A    between atoms: _206  and  _207
REMARK   89  A    between atoms: _210  and  _212
REMARK   90  A    between atoms: _212  and  _213
REMARK   91  A    between atoms: _212  and  _215
REMARK   92  A    between atoms: _215  and  _216
REMARK   93  A    between atoms: _219  and  _221
REMARK   94  A    between atoms: _221  and  _222
REMARK   95  A    between atoms: _224  and  _226
REMARK   96  A    between atoms: _226  and  _227
REMARK   97  A    between atoms: _226  and  _229
REMARK   98  A    between atoms: _229  and  _230
REMARK   99  A    between atoms: _230  and  _231
REMARK  100  A    between atoms: _231  and  _232
REMARK  101  A    between atoms: _241  and  _243
REMARK  102  A    between atoms: _243  and  _244
REMARK  103  A    between atoms: _243  and  _246
REMARK  104  A    between atoms: _246  and  _247
REMARK  105  A    between atoms: _252  and  _254
REMARK  106  A    between atoms: _254  and  _255
REMARK  107  A    between atoms: _254  and  _257
REMARK  108  A    between atoms: _257  and  _258
REMARK  109  A    between atoms: _258  and  _259
REMARK  110  A    between atoms: _259  and  _260
REMARK  111  A    between atoms: _269  and  _271
REMARK  112  A    between atoms: _271  and  _272
REMARK  113  A    between atoms: _271  and  _274
REMARK  114  A    between atoms: _274  and  _275
REMARK  115  A    between atoms: _278  and  _280
REMARK  116  A    between atoms: _280  and  _281
REMARK  117  A    between atoms: _280  and  _283
REMARK  118  A    between atoms: _283  and  _284
REMARK  119  A    between atoms: _287  and  _289
REMARK  120  A    between atoms: _289  and  _290
REMARK  121  A    between atoms: _289  and  _292
REMARK  122  A    between atoms: _292  and  _293
REMARK  123  A    between atoms: _296  and  _298
REMARK  124  A    between atoms: _298  and  _299
REMARK  125  A    between atoms: _298  and  _301
REMARK  126  A    between atoms: _301  and  _302
REMARK  127  A    between atoms: _305  and  _307
REMARK  128  A    between atoms: _307  and  _308
REMARK  129  A    between atoms: _310  and  _312
REMARK  130  A    between atoms: _312  and  _313
REMARK  131  A    between atoms: _316  and  _318
REMARK  132  A    between atoms: _318  and  _319
REMARK  133  A    between atoms: _318  and  _321
REMARK  134  A    between atoms: _321  and  _322
REMARK  135  A    between atoms: _325  and  _327
REMARK  136  A    between atoms: _327  and  _328
REMARK  137  A    between atoms: _327  and  _330
REMARK  138  A    between atoms: _330  and  _331
REMARK  139  A    between atoms: _334  and  _336
REMARK  140  A    between atoms: _336  and  _337
REMARK  141  A    between atoms: _336  and  _339
REMARK  142  A    between atoms: _339  and  _340
REMARK  143  A    between atoms: _343  and  _345
REMARK  144  A    between atoms: _345  and  _346
REMARK  145  A    between atoms: _345  and  _348
REMARK  146  A    between atoms: _348  and  _349
REMARK  147  A    between atoms: _352  and  _354
REMARK  148  A    between atoms: _354  and  _355
REMARK  149  A    between atoms: _354  and  _357
REMARK  150  A    between atoms: _357  and  _358
REMARK  151  A    between atoms: _358  and  _359
REMARK  152  A    between atoms: _361  and  _363
REMARK  153  A    between atoms: _363  and  _364
REMARK  154  A    between atoms: _363  and  _366
REMARK  155  A    between atoms: _369  and  _371
REMARK  156  A    between atoms: _371  and  _372
REMARK  157  A    between atoms: _374  and  _376
REMARK  158  A    between atoms: _376  and  _377
REMARK  159  A    between atoms: _379  and  _381
REMARK  160  A    between atoms: _381  and  _382
REMARK  161  A    between atoms: _381  and  _384
REMARK  162  A    between atoms: _384  and  _385
REMARK  163  A    between atoms: _388  and  _390
REMARK  164  A    between atoms: _390  and  _391
REMARK  165  A    between atoms: _393  and  _395
REMARK  166  A    between atoms: _395  and  _396
REMARK  167  A    between atoms: _398  and  _400
REMARK  168  A    between atoms: _400  and  _401
REMARK  169  A    between atoms: _400  and  _403
REMARK  170  A    between atoms: _403  and  _404
REMARK  171  A    between atoms: _404  and  _405
REMARK  172  A    between atoms: _407  and  _409
REMARK  173  A    between atoms: _409  and  _410
REMARK  174  A    between atoms: _409  and  _412
REMARK  175  A    between atoms: _412  and  _413
REMARK  176  A    between atoms: _417  and  _418
REMARK  177  A    between atoms: _423  and  _425
REMARK  178  A    between atoms: _425  and  _426
REMARK  179  A    between atoms: _425  and  _428
REMARK  180  A    between atoms: _428  and  _429
REMARK  181  A    between atoms: _433  and  _434
REMARK  182  A    between atoms: _439  and  _441
REMARK  183  A    between atoms: _441  and  _442
REMARK  184  A    between atoms: _441  and  _444
REMARK  185  A    between atoms: _444  and  _445
REMARK  186  A    between atoms: _448  and  _450
REMARK  187  A    between atoms: _450  and  _451
REMARK  188  A    between atoms: _450  and  _453
REMARK  189  A    between atoms: _453  and  _454
REMARK  190  A    between atoms: _459  and  _461
REMARK  191  A    between atoms: _461  and  _462
REMARK  192  A    between atoms: _461  and  _464
REMARK  193  A    between atoms: _464  and  _465
REMARK  194  A    between atoms: _468  and  _470
REMARK  195  A    between atoms: _470  and  _471
REMARK  196  A    between atoms: _470  and  _473
REMARK  197  A    between atoms: _473  and  _474
REMARK  198  A    between atoms: _477  and  _479
REMARK  199  A    between atoms: _479  and  _480
REMARK  200  A    between atoms: _482  and  _484
REMARK  201  A    between atoms: _484  and  _485
REMARK  202  A    between atoms: _484  and  _487
REMARK  203  A    between atoms: _487  and  _488
REMARK  204  A    between atoms: _488  and  _489
REMARK  205  A    between atoms: _489  and  _490
REMARK  206  A    between atoms: _499  and  _501
REMARK  207  A    between atoms: _501  and  _502
REMARK  208  A    between atoms: _501  and  _504
REMARK  209  A    between atoms: _504  and  _505
REMARK                            x       y       z     vdW  Elec       q    Type
REMARK                         _______ _______ _______ _____ _____    ______ ____
ROOT
ATOM      1  O   HOH     1     -13.338   9.547  32.979  0.00  0.00    +0.000 OA
ENDROOT
TORSDOF 0
REMARK  Name = ../refined-set-2016/3ttp/3ttp_pocket.pdb
REMARK  209 active torsions:
REMARK  status: ('A' for Active; 'I' for Inactive)
REMARK    1  A    between atoms: _1  and  _3
REMARK    2  A    between atoms: _3  and  _4
REMARK    3  A    between atoms: _3  and  _6
REMARK    4  A    between atoms: _6  and  _7
REMARK    5  A    between atoms: _7  and  _8
REMARK    6  A    between atoms: _8  and  _9
REMARK    7  A    between atoms: _18  and  _20
REMARK    8  A    between atoms: _20  and  _21
REMARK    9  A    between atoms: _20  and  _23
REMARK   10  A    between atoms: _23  and  _24
REMARK   11  A    between atoms: _27  and  _29
REMARK   12  A    between atoms: _29  and  _30
REMARK   13  A    between atoms: _29  and  _32
REMARK   14  A    between atoms: _32  and  _33
REMARK   15  A    between atoms: _36  and  _38
REMARK   16  A    between atoms: _38  and  _39
REMARK   17  A    between atoms: _38  and  _41
REMARK   18  A    between atoms: _41  and  _42
REMARK   19  A    between atoms: _45  and  _47
REMARK   20  A    between atoms: _47  and  _48
REMARK   21  A    between atoms: _47  and  _50
REMARK   22  A    between atoms: _50  and  _51
REMARK   23  A    between atoms: _54  and  _56
REMARK   24  A    between atoms: _56  and  _57
REMARK   25  A    between atoms: _59  and  _61
REMARK   26  A    between atoms: _61  and  _62
REMARK   27  A    between atoms: _65  and  _67
REMARK   28  A    between atoms: _67  and  _68
REMARK   29  A    between atoms: _67  and  _70
REMARK   30  A    between atoms: _70  and  _71
REMARK   31  A    between atoms: _74  and  _76
REMARK   32  A    between atoms: _76  and  _77
REMARK   33  A    between atoms: _76  and  _79
REMARK   34  A    between atoms: _79  and  _80
REMARK   35  A    between atoms: _83  and  _85
REMARK   36  A    between atoms: _85  and  _86
REMARK   37  A    between atoms: _85  and  _88
REMARK   38  A    between atoms: _88  and  _89
REMARK   39  A    between atoms: _92  and  _94
REMARK   40  A    between atoms: _94  and  _95
REMARK   41  A    between atoms: _94  and  _97
REMARK   42  A    between atoms: _97  and  _98
REMARK   43  A    between atoms: _101  and  _103
REMARK   44  A    between atoms: _103  and  _104
REMARK   45  A    between atoms: _103  and  _106
REMARK   46  A    between atoms: _106  and  _107
REMARK   47  A    between atoms: _107  and  _108
REMARK   48  A    between atoms: _110  and  _112
REMARK   49  A    between atoms: _112  and  _113
REMARK   50  A    between atoms: _112  and  _115
REMARK   51  A    between atoms: _118  and  _120
REMARK   52  A    between atoms: _120  and  _121
REMARK   53  A    between atoms: _123  and  _125
REMARK   54  A    between atoms: _125  and  _126
REMARK   55  A    between atoms: _128  and  _130
REMARK   56  A    between atoms: _130  and  _131
REMARK   57  A    between atoms: _130  and  _133
REMARK   58  A    between atoms: _133  and  _134
REMARK   59  A    between atoms: _137  and  _139
REMARK   60  A    between atoms: _139  and  _140
REMARK   61  A    between atoms: _142  and  _144
REMARK   62  A    between atoms: _144  and  _145
REMARK   63  A    between atoms: _147  and  _149
REMARK   64  A    between atoms: _149  and  _150
REMARK   65  A    between atoms: _149  and  _152
REMARK   66  A    between atoms: _152  and  _153
REMARK   67  A    between atoms: _153  and  _154
REMARK   68  A    between atoms: _156  and  _158
REMARK   69  A    between atoms: _158  and  _159
REMARK   70  A    between atoms: _158  and  _161
REMARK   71  A    between atoms: _161  and  _162
REMARK   72  A    between atoms: _165  and  _167
REMARK   73  A    between atoms: _167  and  _168
REMARK   74  A    between atoms: _167  and  _170
REMARK   75  A    between atoms: _170  and  _171
REMARK   76  A    between atoms: _175  and  _176
REMARK   77  A    between atoms: _181  and  _183
REMARK   78  A    between atoms: _183  and  _184
REMARK   79  A    between atoms: _183  and  _186
REMARK   80  A    between atoms: _186  and  _187
REMARK   81  A    between atoms: _190  and  _192
REMARK   82  A    between atoms: _192  and  _193
REMARK   83  A    between atoms: _192  and  _195
REMARK   84  A    between atoms: _195  and  _196
REMARK   85  A    between atoms: _201  and  _203
REMARK   86  A    between atoms: _203  and  _204
REMARK   87  A    between atoms: _203  and  _206
REMARK   88  A    between atoms: _206  and  _207
REMARK   89  A    between atoms: _210  and  _212
REMARK   90  A    between atoms: _212  and  _213
REMARK   91  A    between atoms: _212  and  _215
REMARK   92  A    between atoms: _215  and  _216
REMARK   93  A    between atoms: _219  and  _221
REMARK   94  A    between atoms: _221  and  _222
REMARK   95  A    between atoms: _224  and  _226
REMARK   96  A    between atoms: _226  and  _227
REMARK   97  A    between atoms: _226  and  _229
REMARK   98  A    between atoms: _229  and  _230
REMARK   99  A    between atoms: _230  and  _231
REMARK  100  A    between atoms: _231  and  _232
REMARK  101  A    between atoms: _241  and  _243
REMARK  102  A    between atoms: _243  and  _244
REMARK  103  A    between atoms: _243  and  _246
REMARK  104  A    between atoms: _246  and  _247
REMARK  105  A    between atoms: _252  and  _254
REMARK  106  A    between atoms: _254  and  _255
REMARK  107  A    between atoms: _254  and  _257
REMARK  108  A    between atoms: _257  and  _258
REMARK  109  A    between atoms: _258  and  _259
REMARK  110  A    between atoms: _259  and  _260
REMARK  111  A    between atoms: _269  and  _271
REMARK  112  A    between atoms: _271  and  _272
REMARK  113  A    between atoms: _271  and  _274
REMARK  114  A    between atoms: _274  and  _275
REMARK  115  A    between atoms: _278  and  _280
REMARK  116  A    between atoms: _280  and  _281
REMARK  117  A    between atoms: _280  and  _283
REMARK  118  A    between atoms: _283  and  _284
REMARK  119  A    between atoms: _287  and  _289
REMARK  120  A    between atoms: _289  and  _290
REMARK  121  A    between atoms: _289  and  _292
REMARK  122  A    between atoms: _292  and  _293
REMARK  123  A    between atoms: _296  and  _298
REMARK  124  A    between atoms: _298  and  _299
REMARK  125  A    between atoms: _298  and  _301
REMARK  126  A    between atoms: _301  and  _302
REMARK  127  A    between atoms: _305  and  _307
REMARK  128  A    between atoms: _307  and  _308
REMARK  129  A    between atoms: _310  and  _312
REMARK  130  A    between atoms: _312  and  _313
REMARK  131  A    between atoms: _316  and  _318
REMARK  132  A    between atoms: _318  and  _319
REMARK  133  A    between atoms: _318  and  _321
REMARK  134  A    between atoms: _321  and  _322
REMARK  135  A    between atoms: _325  and  _327
REMARK  136  A    between atoms: _327  and  _328
REMARK  137  A    between atoms: _327  and  _330
REMARK  138  A    between atoms: _330  and  _331
REMARK  139  A    between atoms: _334  and  _336
REMARK  140  A    between atoms: _336  and  _337
REMARK  141  A    between atoms: _336  and  _339
REMARK  142  A    between atoms: _339  and  _340
REMARK  143  A    between atoms: _343  and  _345
REMARK  144  A    between atoms: _345  and  _346
REMARK  145  A    between atoms: _345  and  _348
REMARK  146  A    between atoms: _348  and  _349
REMARK  147  A    between atoms: _352  and  _354
REMARK  148  A    between atoms: _354  and  _355
REMARK  149  A    between atoms: _354  and  _357
REMARK  150  A    between atoms: _357  and  _358
REMARK  151  A    between atoms: _358  and  _359
REMARK  152  A    between atoms: _361  and  _363
REMARK  153  A    between atoms: _363  and  _364
REMARK  154  A    between atoms: _363  and  _366
REMARK  155  A    between atoms: _369  and  _371
REMARK  156  A    between atoms: _371  and  _372
REMARK  157  A    between atoms: _374  and  _376
REMARK  158  A    between atoms: _376  and  _377
REMARK  159  A    between atoms: _379  and  _381
REMARK  160  A    between atoms: _381  and  _382
REMARK  161  A    between atoms: _381  and  _384
REMARK  162  A    between atoms: _384  and  _385
REMARK  163  A    between atoms: _388  and  _390
REMARK  164  A    between atoms: _390  and  _391
REMARK  165  A    between atoms: _393  and  _395
REMARK  166  A    between atoms: _395  and  _396
REMARK  167  A    between atoms: _398  and  _400
REMARK  168  A    between atoms: _400  and  _401
REMARK  169  A    between atoms: _400  and  _403
REMARK  170  A    between atoms: _403  and  _404
REMARK  171  A    between atoms: _404  and  _405
REMARK  172  A    between atoms: _407  and  _409
REMARK  173  A    between atoms: _409  and  _410
REMARK  174  A    between atoms: _409  and  _412
REMARK  175  A    between atoms: _412  and  _413
REMARK  176  A    between atoms: _417  and  _418
REMARK  177  A    between atoms: _423  and  _425
REMARK  178  A    between atoms: _425  and  _426
REMARK  179  A    between atoms: _425  and  _428
REMARK  180  A    between atoms: _428  and  _429
REMARK  181  A    between atoms: _433  and  _434
REMARK  182  A    between atoms: _439  and  _441
REMARK  183  A    between atoms: _441  and  _442
REMARK  184  A    between atoms: _441  and  _444
REMARK  185  A    between atoms: _444  and  _445
REMARK  186  A    between atoms: _448  and  _450
REMARK  187  A    between atoms: _450  and  _451
REMARK  188  A    between atoms: _450  and  _453
REMARK  189  A    between atoms: _453  and  _454
REMARK  190  A    between atoms: _459  and  _461
REMARK  191  A    between atoms: _461  and  _462
REMARK  192  A    between atoms: _461  and  _464
REMARK  193  A    between atoms: _464  and  _465
REMARK  194  A    between atoms: _468  and  _470
REMARK  195  A    between atoms: _470  and  _471
REMARK  196  A    between atoms: _470  and  _473
REMARK  197  A    between atoms: _473  and  _474
REMARK  198  A    between atoms: _477  and  _479
REMARK  199  A    between atoms: _479  and  _480
REMARK  200  A    between atoms: _482  and  _484
REMARK  201  A    between atoms: _484  and  _485
REMARK  202  A    between atoms: _484  and  _487
REMARK  203  A    between atoms: _487  and  _488
REMARK  204  A    between atoms: _488  and  _489
REMARK  205  A    between atoms: _489  and  _490
REMARK  206  A    between atoms: _499  and  _501
REMARK  207  A    between atoms: _501  and  _502
REMARK  208  A    between atoms: _501  and  _504
REMARK  209  A    between atoms: _504  and  _505
REMARK                            x       y       z     vdW  Elec       q    Type
REMARK                         _______ _______ _______ _____ _____    ______ ____
ROOT
ATOM      1  O   HOH     1     -12.037   8.200  30.784  0.00  0.00    +0.000 OA
ENDROOT
TORSDOF 0
REMARK  Name = ../refined-set-2016/3ttp/3ttp_pocket.pdb
REMARK  209 active torsions:
REMARK  status: ('A' for Active; 'I' for Inactive)
REMARK    1  A    between atoms: _1  and  _3
REMARK    2  A    between atoms: _3  and  _4
REMARK    3  A    between atoms: _3  and  _6
REMARK    4  A    between atoms: _6  and  _7
REMARK    5  A    between atoms: _7  and  _8
REMARK    6  A    between atoms: _8  and  _9
REMARK    7  A    between atoms: _18  and  _20
REMARK    8  A    between atoms: _20  and  _21
REMARK    9  A    between atoms: _20  and  _23
REMARK   10  A    between atoms: _23  and  _24
REMARK   11  A    between atoms: _27  and  _29
REMARK   12  A    between atoms: _29  and  _30
REMARK   13  A    between atoms: _29  and  _32
REMARK   14  A    between atoms: _32  and  _33
REMARK   15  A    between atoms: _36  and  _38
REMARK   16  A    between atoms: _38  and  _39
REMARK   17  A    between atoms: _38  and  _41
REMARK   18  A    between atoms: _41  and  _42
REMARK   19  A    between atoms: _45  and  _47
REMARK   20  A    between atoms: _47  and  _48
REMARK   21  A    between atoms: _47  and  _50
REMARK   22  A    between atoms: _50  and  _51
REMARK   23  A    between atoms: _54  and  _56
REMARK   24  A    between atoms: _56  and  _57
REMARK   25  A    between atoms: _59  and  _61
REMARK   26  A    between atoms: _61  and  _62
REMARK   27  A    between atoms: _65  and  _67
REMARK   28  A    between atoms: _67  and  _68
REMARK   29  A    between atoms: _67  and  _70
REMARK   30  A    between atoms: _70  and  _71
REMARK   31  A    between atoms: _74  and  _76
REMARK   32  A    between atoms: _76  and  _77
REMARK   33  A    between atoms: _76  and  _79
REMARK   34  A    between atoms: _79  and  _80
REMARK   35  A    between atoms: _83  and  _85
REMARK   36  A    between atoms: _85  and  _86
REMARK   37  A    between atoms: _85  and  _88
REMARK   38  A    between atoms: _88  and  _89
REMARK   39  A    between atoms: _92  and  _94
REMARK   40  A    between atoms: _94  and  _95
REMARK   41  A    between atoms: _94  and  _97
REMARK   42  A    between atoms: _97  and  _98
REMARK   43  A    between atoms: _101  and  _103
REMARK   44  A    between atoms: _103  and  _104
REMARK   45  A    between atoms: _103  and  _106
REMARK   46  A    between atoms: _106  and  _107
REMARK   47  A    between atoms: _107  and  _108
REMARK   48  A    between atoms: _110  and  _112
REMARK   49  A    between atoms: _112  and  _113
REMARK   50  A    between atoms: _112  and  _115
REMARK   51  A    between atoms: _118  and  _120
REMARK   52  A    between atoms: _120  and  _121
REMARK   53  A    between atoms: _123  and  _125
REMARK   54  A    between atoms: _125  and  _126
REMARK   55  A    between atoms: _128  and  _130
REMARK   56  A    between atoms: _130  and  _131
REMARK   57  A    between atoms: _130  and  _133
REMARK   58  A    between atoms: _133  and  _134
REMARK   59  A    between atoms: _137  and  _139
REMARK   60  A    between atoms: _139  and  _140
REMARK   61  A    between atoms: _142  and  _144
REMARK   62  A    between atoms: _144  and  _145
REMARK   63  A    between atoms: _147  and  _149
REMARK   64  A    between atoms: _149  and  _150
REMARK   65  A    between atoms: _149  and  _152
REMARK   66  A    between atoms: _152  and  _153
REMARK   67  A    between atoms: _153  and  _154
REMARK   68  A    between atoms: _156  and  _158
REMARK   69  A    between atoms: _158  and  _159
REMARK   70  A    between atoms: _158  and  _161
REMARK   71  A    between atoms: _161  and  _162
REMARK   72  A    between atoms: _165  and  _167
REMARK   73  A    between atoms: _167  and  _168
REMARK   74  A    between atoms: _167  and  _170
REMARK   75  A    between atoms: _170  and  _171
REMARK   76  A    between atoms: _175  and  _176
REMARK   77  A    between atoms: _181  and  _183
REMARK   78  A    between atoms: _183  and  _184
REMARK   79  A    between atoms: _183  and  _186
REMARK   80  A    between atoms: _186  and  _187
REMARK   81  A    between atoms: _190  and  _192
REMARK   82  A    between atoms: _192  and  _193
REMARK   83  A    between atoms: _192  and  _195
REMARK   84  A    between atoms: _195  and  _196
REMARK   85  A    between atoms: _201  and  _203
REMARK   86  A    between atoms: _203  and  _204
REMARK   87  A    between atoms: _203  and  _206
REMARK   88  A    between atoms: _206  and  _207
REMARK   89  A    between atoms: _210  and  _212
REMARK   90  A    between atoms: _212  and  _213
REMARK   91  A    between atoms: _212  and  _215
REMARK   92  A    between atoms: _215  and  _216
REMARK   93  A    between atoms: _219  and  _221
REMARK   94  A    between atoms: _221  and  _222
REMARK   95  A    between atoms: _224  and  _226
REMARK   96  A    between atoms: _226  and  _227
REMARK   97  A    between atoms: _226  and  _229
REMARK   98  A    between atoms: _229  and  _230
REMARK   99  A    between atoms: _230  and  _231
REMARK  100  A    between atoms: _231  and  _232
REMARK  101  A    between atoms: _241  and  _243
REMARK  102  A    between atoms: _243  and  _244
REMARK  103  A    between atoms: _243  and  _246
REMARK  104  A    between atoms: _246  and  _247
REMARK  105  A    between atoms: _252  and  _254
REMARK  106  A    between atoms: _254  and  _255
REMARK  107  A    between atoms: _254  and  _257
REMARK  108  A    between atoms: _257  and  _258
REMARK  109  A    between atoms: _258  and  _259
REMARK  110  A    between atoms: _259  and  _260
REMARK  111  A    between atoms: _269  and  _271
REMARK  112  A    between atoms: _271  and  _272
REMARK  113  A    between atoms: _271  and  _274
REMARK  114  A    between atoms: _274  and  _275
REMARK  115  A    between atoms: _278  and  _280
REMARK  116  A    between atoms: _280  and  _281
REMARK  117  A    between atoms: _280  and  _283
REMARK  118  A    between atoms: _283  and  _284
REMARK  119  A    between atoms: _287  and  _289
REMARK  120  A    between atoms: _289  and  _290
REMARK  121  A    between atoms: _289  and  _292
REMARK  122  A    between atoms: _292  and  _293
REMARK  123  A    between atoms: _296  and  _298
REMARK  124  A    between atoms: _298  and  _299
REMARK  125  A    between atoms: _298  and  _301
REMARK  126  A    between atoms: _301  and  _302
REMARK  127  A    between atoms: _305  and  _307
REMARK  128  A    between atoms: _307  and  _308
REMARK  129  A    between atoms: _310  and  _312
REMARK  130  A    between atoms: _312  and  _313
REMARK  131  A    between atoms: _316  and  _318
REMARK  132  A    between atoms: _318  and  _319
REMARK  133  A    between atoms: _318  and  _321
REMARK  134  A    between atoms: _321  and  _322
REMARK  135  A    between atoms: _325  and  _327
REMARK  136  A    between atoms: _327  and  _328
REMARK  137  A    between atoms: _327  and  _330
REMARK  138  A    between atoms: _330  and  _331
REMARK  139  A    between atoms: _334  and  _336
REMARK  140  A    between atoms: _336  and  _337
REMARK  141  A    between atoms: _336  and  _339
REMARK  142  A    between atoms: _339  and  _340
REMARK  143  A    between atoms: _343  and  _345
REMARK  144  A    between atoms: _345  and  _346
REMARK  145  A    between atoms: _345  and  _348
REMARK  146  A    between atoms: _348  and  _349
REMARK  147  A    between atoms: _352  and  _354
REMARK  148  A    between atoms: _354  and  _355
REMARK  149  A    between atoms: _354  and  _357
REMARK  150  A    between atoms: _357  and  _358
REMARK  151  A    between atoms: _358  and  _359
REMARK  152  A    between atoms: _361  and  _363
REMARK  153  A    between atoms: _363  and  _364
REMARK  154  A    between atoms: _363  and  _366
REMARK  155  A    between atoms: _369  and  _371
REMARK  156  A    between atoms: _371  and  _372
REMARK  157  A    between atoms: _374  and  _376
REMARK  158  A    between atoms: _376  and  _377
REMARK  159  A    between atoms: _379  and  _381
REMARK  160  A    between atoms: _381  and  _382
REMARK  161  A    between atoms: _381  and  _384
REMARK  162  A    between atoms: _384  and  _385
REMARK  163  A    between atoms: _388  and  _390
REMARK  164  A    between atoms: _390  and  _391
REMARK  165  A    between atoms: _393  and  _395
REMARK  166  A    between atoms: _395  and  _396
REMARK  167  A    between atoms: _398  and  _400
REMARK  168  A    between atoms: _400  and  _401
REMARK  169  A    between atoms: _400  and  _403
REMARK  170  A    between atoms: _403  and  _404
REMARK  171  A    between atoms: _404  and  _405
REMARK  172  A    between atoms: _407  and  _409
REMARK  173  A    between atoms: _409  and  _410
REMARK  174  A    between atoms: _409  and  _412
REMARK  175  A    between atoms: _412  and  _413
REMARK  176  A    between atoms: _417  and  _418
REMARK  177  A    between atoms: _423  and  _425
REMARK  178  A    between atoms: _425  and  _426
REMARK  179  A    between atoms: _425  and  _428
REMARK  180  A    between atoms: _428  and  _429
REMARK  181  A    between atoms: _433  and  _434
REMARK  182  A    between atoms: _439  and  _441
REMARK  183  A    between atoms: _441  and  _442
REMARK  184  A    between atoms: _441  and  _444
REMARK  185  A    between atoms: _444  and  _445
REMARK  186  A    between atoms: _448  and  _450
REMARK  187  A    between atoms: _450  and  _451
REMARK  188  A    between atoms: _450  and  _453
REMARK  189  A    between atoms: _453  and  _454
REMARK  190  A    between atoms: _459  and  _461
REMARK  191  A    between atoms: _461  and  _462
REMARK  192  A    between atoms: _461  and  _464
REMARK  193  A    between atoms: _464  and  _465
REMARK  194  A    between atoms: _468  and  _470
REMARK  195  A    between atoms: _470  and  _471
REMARK  196  A    between atoms: _470  and  _473
REMARK  197  A    between atoms: _473  and  _474
REMARK  198  A    between atoms: _477  and  _479
REMARK  199  A    between atoms: _479  and  _480
REMARK  200  A    between atoms: _482  and  _484
REMARK  201  A    between atoms: _484  and  _485
REMARK  202  A    between atoms: _484  and  _487
REMARK  203  A    between atoms: _487  and  _488
REMARK  204  A    between atoms: _488  and  _489
REMARK  205  A    between atoms: _489  and  _490
REMARK  206  A    between atoms: _499  and  _501
REMARK  207  A    between atoms: _501  and  _502
REMARK  208  A    between atoms: _501  and  _504
REMARK  209  A    between atoms: _504  and  _505
REMARK                            x       y       z     vdW  Elec       q    Type
REMARK                         _______ _______ _______ _____ _____    ______ ____
ROOT
ATOM      1  O   HOH     1     -15.712  16.302  31.700  0.00  0.00    +0.000 OA
ENDROOT
TORSDOF 0
REMARK  Name = ../refined-set-2016/3ttp/3ttp_pocket.pdb
REMARK  209 active torsions:
REMARK  status: ('A' for Active; 'I' for Inactive)
REMARK    1  A    between atoms: _1  and  _3
REMARK    2  A    between atoms: _3  and  _4
REMARK    3  A    between atoms: _3  and  _6
REMARK    4  A    between atoms: _6  and  _7
REMARK    5  A    between atoms: _7  and  _8
REMARK    6  A    between atoms: _8  and  _9
REMARK    7  A    between atoms: _18  and  _20
REMARK    8  A    between atoms: _20  and  _21
REMARK    9  A    between atoms: _20  and  _23
REMARK   10  A    between atoms: _23  and  _24
REMARK   11  A    between atoms: _27  and  _29
REMARK   12  A    between atoms: _29  and  _30
REMARK   13  A    between atoms: _29  and  _32
REMARK   14  A    between atoms: _32  and  _33
REMARK   15  A    between atoms: _36  and  _38
REMARK   16  A    between atoms: _38  and  _39
REMARK   17  A    between atoms: _38  and  _41
REMARK   18  A    between atoms: _41  and  _42
REMARK   19  A    between atoms: _45  and  _47
REMARK   20  A    between atoms: _47  and  _48
REMARK   21  A    between atoms: _47  and  _50
REMARK   22  A    between atoms: _50  and  _51
REMARK   23  A    between atoms: _54  and  _56
REMARK   24  A    between atoms: _56  and  _57
REMARK   25  A    between atoms: _59  and  _61
REMARK   26  A    between atoms: _61  and  _62
REMARK   27  A    between atoms: _65  and  _67
REMARK   28  A    between atoms: _67  and  _68
REMARK   29  A    between atoms: _67  and  _70
REMARK   30  A    between atoms: _70  and  _71
REMARK   31  A    between atoms: _74  and  _76
REMARK   32  A    between atoms: _76  and  _77
REMARK   33  A    between atoms: _76  and  _79
REMARK   34  A    between atoms: _79  and  _80
REMARK   35  A    between atoms: _83  and  _85
REMARK   36  A    between atoms: _85  and  _86
REMARK   37  A    between atoms: _85  and  _88
REMARK   38  A    between atoms: _88  and  _89
REMARK   39  A    between atoms: _92  and  _94
REMARK   40  A    between atoms: _94  and  _95
REMARK   41  A    between atoms: _94  and  _97
REMARK   42  A    between atoms: _97  and  _98
REMARK   43  A    between atoms: _101  and  _103
REMARK   44  A    between atoms: _103  and  _104
REMARK   45  A    between atoms: _103  and  _106
REMARK   46  A    between atoms: _106  and  _107
REMARK   47  A    between atoms: _107  and  _108
REMARK   48  A    between atoms: _110  and  _112
REMARK   49  A    between atoms: _112  and  _113
REMARK   50  A    between atoms: _112  and  _115
REMARK   51  A    between atoms: _118  and  _120
REMARK   52  A    between atoms: _120  and  _121
REMARK   53  A    between atoms: _123  and  _125
REMARK   54  A    between atoms: _125  and  _126
REMARK   55  A    between atoms: _128  and  _130
REMARK   56  A    between atoms: _130  and  _131
REMARK   57  A    between atoms: _130  and  _133
REMARK   58  A    between atoms: _133  and  _134
REMARK   59  A    between atoms: _137  and  _139
REMARK   60  A    between atoms: _139  and  _140
REMARK   61  A    between atoms: _142  and  _144
REMARK   62  A    between atoms: _144  and  _145
REMARK   63  A    between atoms: _147  and  _149
REMARK   64  A    between atoms: _149  and  _150
REMARK   65  A    between atoms: _149  and  _152
REMARK   66  A    between atoms: _152  and  _153
REMARK   67  A    between atoms: _153  and  _154
REMARK   68  A    between atoms: _156  and  _158
REMARK   69  A    between atoms: _158  and  _159
REMARK   70  A    between atoms: _158  and  _161
REMARK   71  A    between atoms: _161  and  _162
REMARK   72  A    between atoms: _165  and  _167
REMARK   73  A    between atoms: _167  and  _168
REMARK   74  A    between atoms: _167  and  _170
REMARK   75  A    between atoms: _170  and  _171
REMARK   76  A    between atoms: _175  and  _176
REMARK   77  A    between atoms: _181  and  _183
REMARK   78  A    between atoms: _183  and  _184
REMARK   79  A    between atoms: _183  and  _186
REMARK   80  A    between atoms: _186  and  _187
REMARK   81  A    between atoms: _190  and  _192
REMARK   82  A    between atoms: _192  and  _193
REMARK   83  A    between atoms: _192  and  _195
REMARK   84  A    between atoms: _195  and  _196
REMARK   85  A    between atoms: _201  and  _203
REMARK   86  A    between atoms: _203  and  _204
REMARK   87  A    between atoms: _203  and  _206
REMARK   88  A    between atoms: _206  and  _207
REMARK   89  A    between atoms: _210  and  _212
REMARK   90  A    between atoms: _212  and  _213
REMARK   91  A    between atoms: _212  and  _215
REMARK   92  A    between atoms: _215  and  _216
REMARK   93  A    between atoms: _219  and  _221
REMARK   94  A    between atoms: _221  and  _222
REMARK   95  A    between atoms: _224  and  _226
REMARK   96  A    between atoms: _226  and  _227
REMARK   97  A    between atoms: _226  and  _229
REMARK   98  A    between atoms: _229  and  _230
REMARK   99  A    between atoms: _230  and  _231
REMARK  100  A    between atoms: _231  and  _232
REMARK  101  A    between atoms: _241  and  _243
REMARK  102  A    between atoms: _243  and  _244
REMARK  103  A    between atoms: _243  and  _246
REMARK  104  A    between atoms: _246  and  _247
REMARK  105  A    between atoms: _252  and  _254
REMARK  106  A    between atoms: _254  and  _255
REMARK  107  A    between atoms: _254  and  _257
REMARK  108  A    between atoms: _257  and  _258
REMARK  109  A    between atoms: _258  and  _259
REMARK  110  A    between atoms: _259  and  _260
REMARK  111  A    between atoms: _269  and  _271
REMARK  112  A    between atoms: _271  and  _272
REMARK  113  A    between atoms: _271  and  _274
REMARK  114  A    between atoms: _274  and  _275
REMARK  115  A    between atoms: _278  and  _280
REMARK  116  A    between atoms: _280  and  _281
REMARK  117  A    between atoms: _280  and  _283
REMARK  118  A    between atoms: _283  and  _284
REMARK  119  A    between atoms: _287  and  _289
REMARK  120  A    between atoms: _289  and  _290
REMARK  121  A    between atoms: _289  and  _292
REMARK  122  A    between atoms: _292  and  _293
REMARK  123  A    between atoms: _296  and  _298
REMARK  124  A    between atoms: _298  and  _299
REMARK  125  A    between atoms: _298  and  _301
REMARK  126  A    between atoms: _301  and  _302
REMARK  127  A    between atoms: _305  and  _307
REMARK  128  A    between atoms: _307  and  _308
REMARK  129  A    between atoms: _310  and  _312
REMARK  130  A    between atoms: _312  and  _313
REMARK  131  A    between atoms: _316  and  _318
REMARK  132  A    between atoms: _318  and  _319
REMARK  133  A    between atoms: _318  and  _321
REMARK  134  A    between atoms: _321  and  _322
REMARK  135  A    between atoms: _325  and  _327
REMARK  136  A    between atoms: _327  and  _328
REMARK  137  A    between atoms: _327  and  _330
REMARK  138  A    between atoms: _330  and  _331
REMARK  139  A    between atoms: _334  and  _336
REMARK  140  A    between atoms: _336  and  _337
REMARK  141  A    between atoms: _336  and  _339
REMARK  142  A    between atoms: _339  and  _340
REMARK  143  A    between atoms: _343  and  _345
REMARK  144  A    between atoms: _345  and  _346
REMARK  145  A    between atoms: _345  and  _348
REMARK  146  A    between atoms: _348  and  _349
REMARK  147  A    between atoms: _352  and  _354
REMARK  148  A    between atoms: _354  and  _355
REMARK  149  A    between atoms: _354  and  _357
REMARK  150  A    between atoms: _357  and  _358
REMARK  151  A    between atoms: _358  and  _359
REMARK  152  A    between atoms: _361  and  _363
REMARK  153  A    between atoms: _363  and  _364
REMARK  154  A    between atoms: _363  and  _366
REMARK  155  A    between atoms: _369  and  _371
REMARK  156  A    between atoms: _371  and  _372
REMARK  157  A    between atoms: _374  and  _376
REMARK  158  A    between atoms: _376  and  _377
REMARK  159  A    between atoms: _379  and  _381
REMARK  160  A    between atoms: _381  and  _382
REMARK  161  A    between atoms: _381  and  _384
REMARK  162  A    between atoms: _384  and  _385
REMARK  163  A    between atoms: _388  and  _390
REMARK  164  A    between atoms: _390  and  _391
REMARK  165  A    between atoms: _393  and  _395
REMARK  166  A    between atoms: _395  and  _396
REMARK  167  A    between atoms: _398  and  _400
REMARK  168  A    between atoms: _400  and  _401
REMARK  169  A    between atoms: _400  and  _403
REMARK  170  A    between atoms: _403  and  _404
REMARK  171  A    between atoms: _404  and  _405
REMARK  172  A    between atoms: _407  and  _409
REMARK  173  A    between atoms: _409  and  _410
REMARK  174  A    between atoms: _409  and  _412
REMARK  175  A    between atoms: _412  and  _413
REMARK  176  A    between atoms: _417  and  _418
REMARK  177  A    between atoms: _423  and  _425
REMARK  178  A    between atoms: _425  and  _426
REMARK  179  A    between atoms: _425  and  _428
REMARK  180  A    between atoms: _428  and  _429
REMARK  181  A    between atoms: _433  and  _434
REMARK  182  A    between atoms: _439  and  _441
REMARK  183  A    between atoms: _441  and  _442
REMARK  184  A    between atoms: _441  and  _444
REMARK  185  A    between atoms: _444  and  _445
REMARK  186  A    between atoms: _448  and  _450
REMARK  187  A    between atoms: _450  and  _451
REMARK  188  A    between atoms: _450  and  _453
REMARK  189  A    between atoms: _453  and  _454
REMARK  190  A    between atoms: _459  and  _461
REMARK  191  A    between atoms: _461  and  _462
REMARK  192  A    between atoms: _461  and  _464
REMARK  193  A    between atoms: _464  and  _465
REMARK  194  A    between atoms: _468  and  _470
REMARK  195  A    between atoms: _470  and  _471
REMARK  196  A    between atoms: _470  and  _473
REMARK  197  A    between atoms: _473  and  _474
REMARK  198  A    between atoms: _477  and  _479
REMARK  199  A    between atoms: _479  and  _480
REMARK  200  A    between atoms: _482  and  _484
REMARK  201  A    between atoms: _484  and  _485
REMARK  202  A    between atoms: _484  and  _487
REMARK  203  A    between atoms: _487  and  _488
REMARK  204  A    between atoms: _488  and  _489
REMARK  205  A    between atoms: _489  and  _490
REMARK  206  A    between atoms: _499  and  _501
REMARK  207  A    between atoms: _501  and  _502
REMARK  208  A    between atoms: _501  and  _504
REMARK  209  A    between atoms: _504  and  _505
REMARK                            x       y       z     vdW  Elec       q    Type
REMARK                         _______ _______ _______ _____ _____    ______ ____
ROOT
ATOM      1  O   HOH     1      -9.608  17.300  41.884  0.00  0.00    +0.000 OA
ENDROOT
TORSDOF 0
REMARK  Name = ../refined-set-2016/3ttp/3ttp_pocket.pdb
REMARK  209 active torsions:
REMARK  status: ('A' for Active; 'I' for Inactive)
REMARK    1  A    between atoms: _1  and  _3
REMARK    2  A    between atoms: _3  and  _4
REMARK    3  A    between atoms: _3  and  _6
REMARK    4  A    between atoms: _6  and  _7
REMARK    5  A    between atoms: _7  and  _8
REMARK    6  A    between atoms: _8  and  _9
REMARK    7  A    between atoms: _18  and  _20
REMARK    8  A    between atoms: _20  and  _21
REMARK    9  A    between atoms: _20  and  _23
REMARK   10  A    between atoms: _23  and  _24
REMARK   11  A    between atoms: _27  and  _29
REMARK   12  A    between atoms: _29  and  _30
REMARK   13  A    between atoms: _29  and  _32
REMARK   14  A    between atoms: _32  and  _33
REMARK   15  A    between atoms: _36  and  _38
REMARK   16  A    between atoms: _38  and  _39
REMARK   17  A    between atoms: _38  and  _41
REMARK   18  A    between atoms: _41  and  _42
REMARK   19  A    between atoms: _45  and  _47
REMARK   20  A    between atoms: _47  and  _48
REMARK   21  A    between atoms: _47  and  _50
REMARK   22  A    between atoms: _50  and  _51
REMARK   23  A    between atoms: _54  and  _56
REMARK   24  A    between atoms: _56  and  _57
REMARK   25  A    between atoms: _59  and  _61
REMARK   26  A    between atoms: _61  and  _62
REMARK   27  A    between atoms: _65  and  _67
REMARK   28  A    between atoms: _67  and  _68
REMARK   29  A    between atoms: _67  and  _70
REMARK   30  A    between atoms: _70  and  _71
REMARK   31  A    between atoms: _74  and  _76
REMARK   32  A    between atoms: _76  and  _77
REMARK   33  A    between atoms: _76  and  _79
REMARK   34  A    between atoms: _79  and  _80
REMARK   35  A    between atoms: _83  and  _85
REMARK   36  A    between atoms: _85  and  _86
REMARK   37  A    between atoms: _85  and  _88
REMARK   38  A    between atoms: _88  and  _89
REMARK   39  A    between atoms: _92  and  _94
REMARK   40  A    between atoms: _94  and  _95
REMARK   41  A    between atoms: _94  and  _97
REMARK   42  A    between atoms: _97  and  _98
REMARK   43  A    between atoms: _101  and  _103
REMARK   44  A    between atoms: _103  and  _104
REMARK   45  A    between atoms: _103  and  _106
REMARK   46  A    between atoms: _106  and  _107
REMARK   47  A    between atoms: _107  and  _108
REMARK   48  A    between atoms: _110  and  _112
REMARK   49  A    between atoms: _112  and  _113
REMARK   50  A    between atoms: _112  and  _115
REMARK   51  A    between atoms: _118  and  _120
REMARK   52  A    between atoms: _120  and  _121
REMARK   53  A    between atoms: _123  and  _125
REMARK   54  A    between atoms: _125  and  _126
REMARK   55  A    between atoms: _128  and  _130
REMARK   56  A    between atoms: _130  and  _131
REMARK   57  A    between atoms: _130  and  _133
REMARK   58  A    between atoms: _133  and  _134
REMARK   59  A    between atoms: _137  and  _139
REMARK   60  A    between atoms: _139  and  _140
REMARK   61  A    between atoms: _142  and  _144
REMARK   62  A    between atoms: _144  and  _145
REMARK   63  A    between atoms: _147  and  _149
REMARK   64  A    between atoms: _149  and  _150
REMARK   65  A    between atoms: _149  and  _152
REMARK   66  A    between atoms: _152  and  _153
REMARK   67  A    between atoms: _153  and  _154
REMARK   68  A    between atoms: _156  and  _158
REMARK   69  A    between atoms: _158  and  _159
REMARK   70  A    between atoms: _158  and  _161
REMARK   71  A    between atoms: _161  and  _162
REMARK   72  A    between atoms: _165  and  _167
REMARK   73  A    between atoms: _167  and  _168
REMARK   74  A    between atoms: _167  and  _170
REMARK   75  A    between atoms: _170  and  _171
REMARK   76  A    between atoms: _175  and  _176
REMARK   77  A    between atoms: _181  and  _183
REMARK   78  A    between atoms: _183  and  _184
REMARK   79  A    between atoms: _183  and  _186
REMARK   80  A    between atoms: _186  and  _187
REMARK   81  A    between atoms: _190  and  _192
REMARK   82  A    between atoms: _192  and  _193
REMARK   83  A    between atoms: _192  and  _195
REMARK   84  A    between atoms: _195  and  _196
REMARK   85  A    between atoms: _201  and  _203
REMARK   86  A    between atoms: _203  and  _204
REMARK   87  A    between atoms: _203  and  _206
REMARK   88  A    between atoms: _206  and  _207
REMARK   89  A    between atoms: _210  and  _212
REMARK   90  A    between atoms: _212  and  _213
REMARK   91  A    between atoms: _212  and  _215
REMARK   92  A    between atoms: _215  and  _216
REMARK   93  A    between atoms: _219  and  _221
REMARK   94  A    between atoms: _221  and  _222
REMARK   95  A    between atoms: _224  and  _226
REMARK   96  A    between atoms: _226  and  _227
REMARK   97  A    between atoms: _226  and  _229
REMARK   98  A    between atoms: _229  and  _230
REMARK   99  A    between atoms: _230  and  _231
REMARK  100  A    between atoms: _231  and  _232
REMARK  101  A    between atoms: _241  and  _243
REMARK  102  A    between atoms: _243  and  _244
REMARK  103  A    between atoms: _243  and  _246
REMARK  104  A    between atoms: _246  and  _247
REMARK  105  A    between atoms: _252  and  _254
REMARK  106  A    between atoms: _254  and  _255
REMARK  107  A    between atoms: _254  and  _257
REMARK  108  A    between atoms: _257  and  _258
REMARK  109  A    between atoms: _258  and  _259
REMARK  110  A    between atoms: _259  and  _260
REMARK  111  A    between atoms: _269  and  _271
REMARK  112  A    between atoms: _271  and  _272
REMARK  113  A    between atoms: _271  and  _274
REMARK  114  A    between atoms: _274  and  _275
REMARK  115  A    between atoms: _278  and  _280
REMARK  116  A    between atoms: _280  and  _281
REMARK  117  A    between atoms: _280  and  _283
REMARK  118  A    between atoms: _283  and  _284
REMARK  119  A    between atoms: _287  and  _289
REMARK  120  A    between atoms: _289  and  _290
REMARK  121  A    between atoms: _289  and  _292
REMARK  122  A    between atoms: _292  and  _293
REMARK  123  A    between atoms: _296  and  _298
REMARK  124  A    between atoms: _298  and  _299
REMARK  125  A    between atoms: _298  and  _301
REMARK  126  A    between atoms: _301  and  _302
REMARK  127  A    between atoms: _305  and  _307
REMARK  128  A    between atoms: _307  and  _308
REMARK  129  A    between atoms: _310  and  _312
REMARK  130  A    between atoms: _312  and  _313
REMARK  131  A    between atoms: _316  and  _318
REMARK  132  A    between atoms: _318  and  _319
REMARK  133  A    between atoms: _318  and  _321
REMARK  134  A    between atoms: _321  and  _322
REMARK  135  A    between atoms: _325  and  _327
REMARK  136  A    between atoms: _327  and  _328
REMARK  137  A    between atoms: _327  and  _330
REMARK  138  A    between atoms: _330  and  _331
REMARK  139  A    between atoms: _334  and  _336
REMARK  140  A    between atoms: _336  and  _337
REMARK  141  A    between atoms: _336  and  _339
REMARK  142  A    between atoms: _339  and  _340
REMARK  143  A    between atoms: _343  and  _345
REMARK  144  A    between atoms: _345  and  _346
REMARK  145  A    between atoms: _345  and  _348
REMARK  146  A    between atoms: _348  and  _349
REMARK  147  A    between atoms: _352  and  _354
REMARK  148  A    between atoms: _354  and  _355
REMARK  149  A    between atoms: _354  and  _357
REMARK  150  A    between atoms: _357  and  _358
REMARK  151  A    between atoms: _358  and  _359
REMARK  152  A    between atoms: _361  and  _363
REMARK  153  A    between atoms: _363  and  _364
REMARK  154  A    between atoms: _363  and  _366
REMARK  155  A    between atoms: _369  and  _371
REMARK  156  A    between atoms: _371  and  _372
REMARK  157  A    between atoms: _374  and  _376
REMARK  158  A    between atoms: _376  and  _377
REMARK  159  A    between atoms: _379  and  _381
REMARK  160  A    between atoms: _381  and  _382
REMARK  161  A    between atoms: _381  and  _384
REMARK  162  A    between atoms: _384  and  _385
REMARK  163  A    between atoms: _388  and  _390
REMARK  164  A    between atoms: _390  and  _391
REMARK  165  A    between atoms: _393  and  _395
REMARK  166  A    between atoms: _395  and  _396
REMARK  167  A    between atoms: _398  and  _400
REMARK  168  A    between atoms: _400  and  _401
REMARK  169  A    between atoms: _400  and  _403
REMARK  170  A    between atoms: _403  and  _404
REMARK  171  A    between atoms: _404  and  _405
REMARK  172  A    between atoms: _407  and  _409
REMARK  173  A    between atoms: _409  and  _410
REMARK  174  A    between atoms: _409  and  _412
REMARK  175  A    between atoms: _412  and  _413
REMARK  176  A    between atoms: _417  and  _418
REMARK  177  A    between atoms: _423  and  _425
REMARK  178  A    between atoms: _425  and  _426
REMARK  179  A    between atoms: _425  and  _428
REMARK  180  A    between atoms: _428  and  _429
REMARK  181  A    between atoms: _433  and  _434
REMARK  182  A    between atoms: _439  and  _441
REMARK  183  A    between atoms: _441  and  _442
REMARK  184  A    between atoms: _441  and  _444
REMARK  185  A    between atoms: _444  and  _445
REMARK  186  A    between atoms: _448  and  _450
REMARK  187  A    between atoms: _450  and  _451
REMARK  188  A    between atoms: _450  and  _453
REMARK  189  A    between atoms: _453  and  _454
REMARK  190  A    between atoms: _459  and  _461
REMARK  191  A    between atoms: _461  and  _462
REMARK  192  A    between atoms: _461  and  _464
REMARK  193  A    between atoms: _464  and  _465
REMARK  194  A    between atoms: _468  and  _470
REMARK  195  A    between atoms: _470  and  _471
REMARK  196  A    between atoms: _470  and  _473
REMARK  197  A    between atoms: _473  and  _474
REMARK  198  A    between atoms: _477  and  _479
REMARK  199  A    between atoms: _479  and  _480
REMARK  200  A    between atoms: _482  and  _484
REMARK  201  A    between atoms: _484  and  _485
REMARK  202  A    between atoms: _484  and  _487
REMARK  203  A    between atoms: _487  and  _488
REMARK  204  A    between atoms: _488  and  _489
REMARK  205  A    between atoms: _489  and  _490
REMARK  206  A    between atoms: _499  and  _501
REMARK  207  A    between atoms: _501  and  _502
REMARK  208  A    between atoms: _501  and  _504
REMARK  209  A    between atoms: _504  and  _505
REMARK                            x       y       z     vdW  Elec       q    Type
REMARK                         _______ _______ _______ _____ _____    ______ ____
ROOT
ATOM      1  O   HOH     1      -8.454  19.576  40.424  0.00  0.00    +0.000 OA
ENDROOT
TORSDOF 0
