REMARK  Name = ../refined-set-2016/3lpi/3lpi_pocket.pdb
REMARK  250 active torsions:
REMARK  status: ('A' for Active; 'I' for Inactive)
REMARK    1  A    between atoms: _1  and  _3
REMARK    2  A    between atoms: _3  and  _4
REMARK    3  A    between atoms: _3  and  _6
REMARK    4  A    between atoms: _6  and  _7
REMARK    5  A    between atoms: _7  and  _8
REMARK    6  A    between atoms: _8  and  _9
REMARK    7  A    between atoms: _9  and  _10
REMARK    8  A    between atoms: _14  and  _16
REMARK    9  A    between atoms: _16  and  _17
REMARK   10  A    between atoms: _16  and  _19
REMARK   11  A    between atoms: _19  and  _20
REMARK   12  A    between atoms: _22  and  _24
REMARK   13  A    between atoms: _24  and  _25
REMARK   14  A    between atoms: _27  and  _29
REMARK   15  A    between atoms: _29  and  _30
REMARK   16  A    between atoms: _29  and  _32
REMARK   17  A    between atoms: _32  and  _33
REMARK   18  A    between atoms: _33  and  _34
REMARK   19  A    between atoms: _39  and  _41
REMARK   20  A    between atoms: _41  and  _42
REMARK   21  A    between atoms: _44  and  _46
REMARK   22  A    between atoms: _46  and  _47
REMARK   23  A    between atoms: _46  and  _49
REMARK   24  A    between atoms: _49  and  _50
REMARK   25  A    between atoms: _55  and  _56
REMARK   26  A    between atoms: _58  and  _60
REMARK   27  A    between atoms: _60  and  _61
REMARK   28  A    between atoms: _60  and  _63
REMARK   29  A    between atoms: _63  and  _64
REMARK   30  A    between atoms: _67  and  _69
REMARK   31  A    between atoms: _69  and  _70
REMARK   32  A    between atoms: _69  and  _72
REMARK   33  A    between atoms: _75  and  _77
REMARK   34  A    between atoms: _77  and  _78
REMARK   35  A    between atoms: _77  and  _80
REMARK   36  A    between atoms: _80  and  _81
REMARK   37  A    between atoms: _84  and  _86
REMARK   38  A    between atoms: _86  and  _87
REMARK   39  A    between atoms: _86  and  _89
REMARK   40  A    between atoms: _89  and  _90
REMARK   41  A    between atoms: _93  and  _95
REMARK   42  A    between atoms: _95  and  _96
REMARK   43  A    between atoms: _98  and  _100
REMARK   44  A    between atoms: _100  and  _101
REMARK   45  A    between atoms: _100  and  _103
REMARK   46  A    between atoms: _103  and  _104
REMARK   47  A    between atoms: _106  and  _108
REMARK   48  A    between atoms: _108  and  _109
REMARK   49  A    between atoms: _108  and  _111
REMARK   50  A    between atoms: _111  and  _112
REMARK   51  A    between atoms: _114  and  _116
REMARK   52  A    between atoms: _116  and  _117
REMARK   53  A    between atoms: _116  and  _119
REMARK   54  A    between atoms: _119  and  _120
REMARK   55  A    between atoms: _125  and  _127
REMARK   56  A    between atoms: _127  and  _128
REMARK   57  A    between atoms: _127  and  _130
REMARK   58  A    between atoms: _130  and  _131
REMARK   59  A    between atoms: _136  and  _137
REMARK   60  A    between atoms: _139  and  _141
REMARK   61  A    between atoms: _141  and  _142
REMARK   62  A    between atoms: _141  and  _144
REMARK   63  A    between atoms: _148  and  _149
REMARK   64  A    between atoms: _154  and  _156
REMARK   65  A    between atoms: _156  and  _157
REMARK   66  A    between atoms: _156  and  _159
REMARK   67  A    between atoms: _159  and  _160
REMARK   68  A    between atoms: _165  and  _166
REMARK   69  A    between atoms: _168  and  _170
REMARK   70  A    between atoms: _170  and  _171
REMARK   71  A    between atoms: _170  and  _173
REMARK   72  A    between atoms: _173  and  _174
REMARK   73  A    between atoms: _177  and  _179
REMARK   74  A    between atoms: _179  and  _180
REMARK   75  A    between atoms: _179  and  _182
REMARK   76  A    between atoms: _182  and  _183
REMARK   77  A    between atoms: _183  and  _184
REMARK   78  A    between atoms: _189  and  _191
REMARK   79  A    between atoms: _191  and  _192
REMARK   80  A    between atoms: _194  and  _196
REMARK   81  A    between atoms: _196  and  _197
REMARK   82  A    between atoms: _196  and  _199
REMARK   83  A    between atoms: _199  and  _200
REMARK   84  A    between atoms: _200  and  _201
REMARK   85  A    between atoms: _201  and  _202
REMARK   86  A    between atoms: _202  and  _203
REMARK   87  A    between atoms: _207  and  _209
REMARK   88  A    between atoms: _209  and  _210
REMARK   89  A    between atoms: _209  and  _212
REMARK   90  A    between atoms: _212  and  _213
REMARK   91  A    between atoms: _223  and  _225
REMARK   92  A    between atoms: _225  and  _226
REMARK   93  A    between atoms: _225  and  _228
REMARK   94  A    between atoms: _228  and  _229
REMARK   95  A    between atoms: _232  and  _234
REMARK   96  A    between atoms: _234  and  _235
REMARK   97  A    between atoms: _234  and  _237
REMARK   98  A    between atoms: _237  and  _238
REMARK   99  A    between atoms: _238  and  _239
REMARK  100  A    between atoms: _239  and  _240
REMARK  101  A    between atoms: _240  and  _241
REMARK  102  A    between atoms: _245  and  _247
REMARK  103  A    between atoms: _247  and  _248
REMARK  104  A    between atoms: _247  and  _250
REMARK  105  A    between atoms: _250  and  _251
REMARK  106  A    between atoms: _257  and  _259
REMARK  107  A    between atoms: _259  and  _260
REMARK  108  A    between atoms: _259  and  _262
REMARK  109  A    between atoms: _262  and  _263
REMARK  110  A    between atoms: _269  and  _271
REMARK  111  A    between atoms: _271  and  _272
REMARK  112  A    between atoms: _271  and  _274
REMARK  113  A    between atoms: _274  and  _275
REMARK  114  A    between atoms: _278  and  _280
REMARK  115  A    between atoms: _280  and  _281
REMARK  116  A    between atoms: _280  and  _283
REMARK  117  A    between atoms: _283  and  _284
REMARK  118  A    between atoms: _286  and  _288
REMARK  119  A    between atoms: _288  and  _289
REMARK  120  A    between atoms: _288  and  _291
REMARK  121  A    between atoms: _291  and  _292
REMARK  122  A    between atoms: _302  and  _304
REMARK  123  A    between atoms: _304  and  _305
REMARK  124  A    between atoms: _307  and  _309
REMARK  125  A    between atoms: _309  and  _310
REMARK  126  A    between atoms: _309  and  _312
REMARK  127  A    between atoms: _312  and  _313
REMARK  128  A    between atoms: _316  and  _318
REMARK  129  A    between atoms: _318  and  _319
REMARK  130  A    between atoms: _318  and  _321
REMARK  131  A    between atoms: _321  and  _322
REMARK  132  A    between atoms: _325  and  _327
REMARK  133  A    between atoms: _327  and  _328
REMARK  134  A    between atoms: _330  and  _332
REMARK  135  A    between atoms: _332  and  _333
REMARK  136  A    between atoms: _332  and  _335
REMARK  137  A    between atoms: _335  and  _336
REMARK  138  A    between atoms: _339  and  _341
REMARK  139  A    between atoms: _341  and  _342
REMARK  140  A    between atoms: _345  and  _347
REMARK  141  A    between atoms: _347  and  _348
REMARK  142  A    between atoms: _347  and  _350
REMARK  143  A    between atoms: _350  and  _351
REMARK  144  A    between atoms: _356  and  _357
REMARK  145  A    between atoms: _359  and  _361
REMARK  146  A    between atoms: _361  and  _362
REMARK  147  A    between atoms: _361  and  _364
REMARK  148  A    between atoms: _364  and  _365
REMARK  149  A    between atoms: _365  and  _366
REMARK  150  A    between atoms: _369  and  _371
REMARK  151  A    between atoms: _371  and  _372
REMARK  152  A    between atoms: _371  and  _374
REMARK  153  A    between atoms: _374  and  _375
REMARK  154  A    between atoms: _378  and  _380
REMARK  155  A    between atoms: _380  and  _381
REMARK  156  A    between atoms: _384  and  _386
REMARK  157  A    between atoms: _386  and  _387
REMARK  158  A    between atoms: _386  and  _389
REMARK  159  A    between atoms: _389  and  _390
REMARK  160  A    between atoms: _390  and  _391
REMARK  161  A    between atoms: _391  and  _392
REMARK  162  A    between atoms: _401  and  _403
REMARK  163  A    between atoms: _403  and  _404
REMARK  164  A    between atoms: _403  and  _406
REMARK  165  A    between atoms: _406  and  _407
REMARK  166  A    between atoms: _417  and  _419
REMARK  167  A    between atoms: _419  and  _420
REMARK  168  A    between atoms: _419  and  _422
REMARK  169  A    between atoms: _422  and  _423
REMARK  170  A    between atoms: _428  and  _429
REMARK  171  A    between atoms: _431  and  _433
REMARK  172  A    between atoms: _433  and  _434
REMARK  173  A    between atoms: _433  and  _436
REMARK  174  A    between atoms: _436  and  _437
REMARK  175  A    between atoms: _442  and  _443
REMARK  176  A    between atoms: _445  and  _447
REMARK  177  A    between atoms: _447  and  _448
REMARK  178  A    between atoms: _447  and  _450
REMARK  179  A    between atoms: _450  and  _451
REMARK  180  A    between atoms: _451  and  _452
REMARK  181  A    between atoms: _452  and  _453
REMARK  182  A    between atoms: _453  and  _454
REMARK  183  A    between atoms: _458  and  _460
REMARK  184  A    between atoms: _460  and  _461
REMARK  185  A    between atoms: _460  and  _463
REMARK  186  A    between atoms: _463  and  _464
REMARK  187  A    between atoms: _467  and  _469
REMARK  188  A    between atoms: _469  and  _470
REMARK  189  A    between atoms: _469  and  _472
REMARK  190  A    between atoms: _475  and  _477
REMARK  191  A    between atoms: _477  and  _478
REMARK  192  A    between atoms: _477  and  _480
REMARK  193  A    between atoms: _480  and  _481
REMARK  194  A    between atoms: _484  and  _486
REMARK  195  A    between atoms: _486  and  _487
REMARK  196  A    between atoms: _486  and  _489
REMARK  197  A    between atoms: _489  and  _490
REMARK  198  A    between atoms: _492  and  _494
REMARK  199  A    between atoms: _494  and  _495
REMARK  200  A    between atoms: _497  and  _499
REMARK  201  A    between atoms: _499  and  _500
REMARK  202  A    between atoms: _499  and  _502
REMARK  203  A    between atoms: _502  and  _503
REMARK  204  A    between atoms: _506  and  _508
REMARK  205  A    between atoms: _508  and  _509
REMARK  206  A    between atoms: _508  and  _511
REMARK  207  A    between atoms: _511  and  _512
REMARK  208  A    between atoms: _515  and  _517
REMARK  209  A    between atoms: _517  and  _518
REMARK  210  A    between atoms: _517  and  _520
REMARK  211  A    between atoms: _520  and  _521
REMARK  212  A    between atoms: _526  and  _528
REMARK  213  A    between atoms: _528  and  _529
REMARK  214  A    between atoms: _528  and  _531
REMARK  215  A    between atoms: _531  and  _532
REMARK  216  A    between atoms: _532  and  _533
REMARK  217  A    between atoms: _533  and  _534
REMARK  218  A    between atoms: _543  and  _545
REMARK  219  A    between atoms: _545  and  _546
REMARK  220  A    between atoms: _545  and  _548
REMARK  221  A    between atoms: _548  and  _549
REMARK  222  A    between atoms: _549  and  _550
REMARK  223  A    between atoms: _550  and  _551
REMARK  224  A    between atoms: _560  and  _562
REMARK  225  A    between atoms: _562  and  _563
REMARK  226  A    between atoms: _562  and  _565
REMARK  227  A    between atoms: _565  and  _566
REMARK  228  A    between atoms: _568  and  _570
REMARK  229  A    between atoms: _570  and  _571
REMARK  230  A    between atoms: _570  and  _573
REMARK  231  A    between atoms: _573  and  _574
REMARK  232  A    between atoms: _574  and  _575
REMARK  233  A    between atoms: _580  and  _582
REMARK  234  A    between atoms: _582  and  _583
REMARK  235  A    between atoms: _582  and  _585
REMARK  236  A    between atoms: _585  and  _586
REMARK  237  A    between atoms: _589  and  _591
REMARK  238  A    between atoms: _591  and  _592
REMARK  239  A    between atoms: _591  and  _594
REMARK  240  A    between atoms: _594  and  _595
REMARK  241  A    between atoms: _598  and  _600
REMARK  242  A    between atoms: _600  and  _601
REMARK  243  A    between atoms: _600  and  _603
REMARK  244  A    between atoms: _606  and  _608
REMARK  245  A    between atoms: _608  and  _609
REMARK  246  A    between atoms: _611  and  _613
REMARK  247  A    between atoms: _613  and  _614
REMARK  248  A    between atoms: _617  and  _619
REMARK  249  A    between atoms: _619  and  _620
REMARK  250  A    between atoms: _619  and  _622
REMARK                            x       y       z     vdW  Elec       q    Type
REMARK                         _______ _______ _______ _____ _____    ______ ____
ROOT
ATOM      1  CA  GLN A   4      33.051  10.214  19.020  0.00  0.00    +0.149 C 
ENDROOT
BRANCH   1   4
ATOM      2  C   GLY A   3      33.816  11.613  20.847  0.00  0.00    +0.243 C 
ATOM      3  O   GLY A   3      33.085  12.534  20.485  0.00  0.00    -0.273 OA
ATOM      4  N   GLN A   4      33.869  10.450  20.207  0.00  0.00    -0.297 N 
ATOM      5  H   GLN A   4      34.500   9.700  20.555  0.00  0.00    +0.150 HD
BRANCH   2   6
ATOM      6  CA  GLY A   3      34.705  11.789  22.068  0.00  0.00    +0.176 C 
BRANCH   6   9
ATOM      7  C   SER A   2      34.281   9.821  23.406  0.00  0.00    +0.243 C 
ATOM      8  O   SER A   2      33.070  10.054  23.443  0.00  0.00    -0.273 OA
ATOM      9  N   GLY A   3      35.148  10.589  22.752  0.00  0.00    -0.295 N 
ATOM     10  H   GLY A   3      36.154  10.326  22.731  0.00  0.00    +0.150 HD
BRANCH   7  11
ATOM     11  CA  SER A   2      34.856   8.604  24.116  0.00  0.00    +0.178 C 
BRANCH  11  13
ATOM     12  C   LYS A   1      35.549   7.389  22.126  0.00  0.00    +0.238 C 
ATOM     13  N   SER A   2      35.831   7.840  23.344  0.00  0.00    -0.295 N 
ATOM     14  H   SER A   2      36.766   7.644  23.756  0.00  0.00    +0.150 HD
ATOM     15  O   LYS A   1      34.477   7.619  21.561  0.00  0.00    -0.274 OA
BRANCH  12  16
ATOM     16  CA  LYS A   1      36.629   6.560  21.441  0.00  0.00    +0.145 C 
BRANCH  16  17
ATOM     17  N   LYS A   1      36.066   5.869  20.283  0.00  0.00    -0.238 NA
ATOM     18  H   LYS A   1      35.198   6.242  19.848  0.00  0.00    +0.142 HD
ENDBRANCH  16  17
BRANCH  16  19
ATOM     19  CB  LYS A   1      37.818   7.439  21.028  0.00  0.00    +0.026 C 
BRANCH  19  20
ATOM     20  CG  LYS A   1      37.578   8.353  19.837  0.00  0.00    -0.000 C 
BRANCH  20  21
ATOM     21  CD  LYS A   1      38.881   9.047  19.445  0.00  0.00    -0.024 C 
BRANCH  21  22
ATOM     22  CE  LYS A   1      38.735   9.882  18.184  0.00  0.00    -0.086 C 
BRANCH  22  23
ATOM     23  NZ  LYS A   1      39.997  10.615  17.853  0.00  0.00    +0.380 N 
ATOM     24  HZ1 LYS A   1      40.244  11.250  18.639  0.00  0.00    -0.089 HD
ATOM     25  HZ2 LYS A   1      40.765   9.930  17.704  0.00  0.00    -0.089 HD
ATOM     26  HZ3 LYS A   1      39.856  11.173  16.987  0.00  0.00    -0.089 HD
ENDBRANCH  22  23
ENDBRANCH  21  22
ENDBRANCH  20  21
ENDBRANCH  19  20
ENDBRANCH  16  19
ENDBRANCH  12  16
ENDBRANCH  11  13
BRANCH  11  27
ATOM     27  CB  SER A   2      35.465   9.036  25.454  0.00  0.00    +0.166 C 
BRANCH  27  28
ATOM     28  OG  SER A   2      36.555   9.921  25.266  0.00  0.00    -0.380 OA
ATOM     29  H   SER A   2      36.924  10.180  26.147  0.00  0.00    +0.211 HD
ENDBRANCH  27  28
ENDBRANCH  11  27
ENDBRANCH   7  11
ENDBRANCH   6   9
ENDBRANCH   2   6
ENDBRANCH   1   4
BRANCH   1  30
ATOM     30  C   GLN A   4      32.127   9.009  19.152  0.00  0.00    +0.241 C 
ATOM     31  N   GLY A   5      32.182   8.349  20.306  0.00  0.00    -0.295 N 
ATOM     32  H   GLY A   5      32.843   8.660  21.046  0.00  0.00    +0.150 HD
ATOM     33  O   GLN A   4      31.374   8.691  18.231  0.00  0.00    -0.273 OA
BRANCH  31  34
ATOM     34  CA  GLY A   5      31.329   7.200  20.542  0.00  0.00    +0.176 C 
BRANCH  34  35
ATOM     35  C   GLY A   5      31.934   5.870  20.144  0.00  0.00    +0.243 C 
ATOM     36  N   TYR A   6      31.482   4.807  20.803  0.00  0.00    -0.298 N 
ATOM     37  H   TYR A   6      30.770   4.943  21.549  0.00  0.00    +0.150 HD
ATOM     38  O   GLY A   5      32.800   5.805  19.270  0.00  0.00    -0.273 OA
BRANCH  36  39
ATOM     39  CA  TYR A   6      31.953   3.456  20.514  0.00  0.00    +0.141 C 
BRANCH  39  40
ATOM     40  C   TYR A   6      30.884   2.728  19.705  0.00  0.00    +0.227 C 
ATOM     41  O   TYR A   6      29.694   2.819  20.012  0.00  0.00    -0.286 OA
ENDBRANCH  39  40
BRANCH  39  42
ATOM     42  CB  TYR A   6      32.246   2.699  21.812  0.00  0.00    +0.054 C 
BRANCH  42  43
ATOM     43  CG  TYR A   6      33.470   3.207  22.546  0.00  0.00    -0.020 A 
ATOM     44  CD2 TYR A   6      33.374   4.227  23.491  0.00  0.00    -0.001 A 
ATOM     45  CE2 TYR A   6      34.501   4.691  24.158  0.00  0.00    +0.036 A 
ATOM     46  CZ  TYR A   6      35.741   4.132  23.874  0.00  0.00    +0.134 A 
ATOM     47  CE1 TYR A   6      35.854   3.126  22.937  0.00  0.00    +0.036 A 
ATOM     48  CD1 TYR A   6      34.726   2.670  22.284  0.00  0.00    -0.001 A 
BRANCH  46  49
ATOM     49  OH  TYR A   6      36.870   4.562  24.536  0.00  0.00    -0.506 OA
ATOM     50  HH  TYR A   6      36.625   5.282  25.170  0.00  0.00    +0.292 HD
ENDBRANCH  46  49
ENDBRANCH  42  43
ENDBRANCH  39  42
ENDBRANCH  36  39
ENDBRANCH  34  35
ENDBRANCH  31  34
ENDBRANCH   1  30
BRANCH   1  51
ATOM     51  CB  GLN A   4      33.946  10.056  17.789  0.00  0.00    +0.039 C 
BRANCH  51  52
ATOM     52  CG  GLN A   4      34.826  11.273  17.526  0.00  0.00    +0.087 C 
BRANCH  52  53
ATOM     53  CD  GLN A   4      35.512  11.224  16.173  0.00  0.00    +0.219 C 
ATOM     54  OE1 GLN A   4      36.087  10.203  15.790  0.00  0.00    -0.275 OA
ATOM     55  NE2 GLN A   4      35.461  12.336  15.445  0.00  0.00    -0.329 N 
ATOM     56 HE21 GLN A   4      34.964  13.174  15.809  0.00  0.00    +0.145 HD
ATOM     57 HE22 GLN A   4      35.918  12.368  14.511  0.00  0.00    +0.145 HD
ENDBRANCH  52  53
ENDBRANCH  51  52
ENDBRANCH   1  51
TORSDOF 25
REMARK  Name = ../refined-set-2016/3lpi/3lpi_pocket.pdb
REMARK  250 active torsions:
REMARK  status: ('A' for Active; 'I' for Inactive)
REMARK    1  A    between atoms: _1  and  _3
REMARK    2  A    between atoms: _3  and  _4
REMARK    3  A    between atoms: _3  and  _6
REMARK    4  A    between atoms: _6  and  _7
REMARK    5  A    between atoms: _7  and  _8
REMARK    6  A    between atoms: _8  and  _9
REMARK    7  A    between atoms: _9  and  _10
REMARK    8  A    between atoms: _14  and  _16
REMARK    9  A    between atoms: _16  and  _17
REMARK   10  A    between atoms: _16  and  _19
REMARK   11  A    between atoms: _19  and  _20
REMARK   12  A    between atoms: _22  and  _24
REMARK   13  A    between atoms: _24  and  _25
REMARK   14  A    between atoms: _27  and  _29
REMARK   15  A    between atoms: _29  and  _30
REMARK   16  A    between atoms: _29  and  _32
REMARK   17  A    between atoms: _32  and  _33
REMARK   18  A    between atoms: _33  and  _34
REMARK   19  A    between atoms: _39  and  _41
REMARK   20  A    between atoms: _41  and  _42
REMARK   21  A    between atoms: _44  and  _46
REMARK   22  A    between atoms: _46  and  _47
REMARK   23  A    between atoms: _46  and  _49
REMARK   24  A    between atoms: _49  and  _50
REMARK   25  A    between atoms: _55  and  _56
REMARK   26  A    between atoms: _58  and  _60
REMARK   27  A    between atoms: _60  and  _61
REMARK   28  A    between atoms: _60  and  _63
REMARK   29  A    between atoms: _63  and  _64
REMARK   30  A    between atoms: _67  and  _69
REMARK   31  A    between atoms: _69  and  _70
REMARK   32  A    between atoms: _69  and  _72
REMARK   33  A    between atoms: _75  and  _77
REMARK   34  A    between atoms: _77  and  _78
REMARK   35  A    between atoms: _77  and  _80
REMARK   36  A    between atoms: _80  and  _81
REMARK   37  A    between atoms: _84  and  _86
REMARK   38  A    between atoms: _86  and  _87
REMARK   39  A    between atoms: _86  and  _89
REMARK   40  A    between atoms: _89  and  _90
REMARK   41  A    between atoms: _93  and  _95
REMARK   42  A    between atoms: _95  and  _96
REMARK   43  A    between atoms: _98  and  _100
REMARK   44  A    between atoms: _100  and  _101
REMARK   45  A    between atoms: _100  and  _103
REMARK   46  A    between atoms: _103  and  _104
REMARK   47  A    between atoms: _106  and  _108
REMARK   48  A    between atoms: _108  and  _109
REMARK   49  A    between atoms: _108  and  _111
REMARK   50  A    between atoms: _111  and  _112
REMARK   51  A    between atoms: _114  and  _116
REMARK   52  A    between atoms: _116  and  _117
REMARK   53  A    between atoms: _116  and  _119
REMARK   54  A    between atoms: _119  and  _120
REMARK   55  A    between atoms: _125  and  _127
REMARK   56  A    between atoms: _127  and  _128
REMARK   57  A    between atoms: _127  and  _130
REMARK   58  A    between atoms: _130  and  _131
REMARK   59  A    between atoms: _136  and  _137
REMARK   60  A    between atoms: _139  and  _141
REMARK   61  A    between atoms: _141  and  _142
REMARK   62  A    between atoms: _141  and  _144
REMARK   63  A    between atoms: _148  and  _149
REMARK   64  A    between atoms: _154  and  _156
REMARK   65  A    between atoms: _156  and  _157
REMARK   66  A    between atoms: _156  and  _159
REMARK   67  A    between atoms: _159  and  _160
REMARK   68  A    between atoms: _165  and  _166
REMARK   69  A    between atoms: _168  and  _170
REMARK   70  A    between atoms: _170  and  _171
REMARK   71  A    between atoms: _170  and  _173
REMARK   72  A    between atoms: _173  and  _174
REMARK   73  A    between atoms: _177  and  _179
REMARK   74  A    between atoms: _179  and  _180
REMARK   75  A    between atoms: _179  and  _182
REMARK   76  A    between atoms: _182  and  _183
REMARK   77  A    between atoms: _183  and  _184
REMARK   78  A    between atoms: _189  and  _191
REMARK   79  A    between atoms: _191  and  _192
REMARK   80  A    between atoms: _194  and  _196
REMARK   81  A    between atoms: _196  and  _197
REMARK   82  A    between atoms: _196  and  _199
REMARK   83  A    between atoms: _199  and  _200
REMARK   84  A    between atoms: _200  and  _201
REMARK   85  A    between atoms: _201  and  _202
REMARK   86  A    between atoms: _202  and  _203
REMARK   87  A    between atoms: _207  and  _209
REMARK   88  A    between atoms: _209  and  _210
REMARK   89  A    between atoms: _209  and  _212
REMARK   90  A    between atoms: _212  and  _213
REMARK   91  A    between atoms: _223  and  _225
REMARK   92  A    between atoms: _225  and  _226
REMARK   93  A    between atoms: _225  and  _228
REMARK   94  A    between atoms: _228  and  _229
REMARK   95  A    between atoms: _232  and  _234
REMARK   96  A    between atoms: _234  and  _235
REMARK   97  A    between atoms: _234  and  _237
REMARK   98  A    between atoms: _237  and  _238
REMARK   99  A    between atoms: _238  and  _239
REMARK  100  A    between atoms: _239  and  _240
REMARK  101  A    between atoms: _240  and  _241
REMARK  102  A    between atoms: _245  and  _247
REMARK  103  A    between atoms: _247  and  _248
REMARK  104  A    between atoms: _247  and  _250
REMARK  105  A    between atoms: _250  and  _251
REMARK  106  A    between atoms: _257  and  _259
REMARK  107  A    between atoms: _259  and  _260
REMARK  108  A    between atoms: _259  and  _262
REMARK  109  A    between atoms: _262  and  _263
REMARK  110  A    between atoms: _269  and  _271
REMARK  111  A    between atoms: _271  and  _272
REMARK  112  A    between atoms: _271  and  _274
REMARK  113  A    between atoms: _274  and  _275
REMARK  114  A    between atoms: _278  and  _280
REMARK  115  A    between atoms: _280  and  _281
REMARK  116  A    between atoms: _280  and  _283
REMARK  117  A    between atoms: _283  and  _284
REMARK  118  A    between atoms: _286  and  _288
REMARK  119  A    between atoms: _288  and  _289
REMARK  120  A    between atoms: _288  and  _291
REMARK  121  A    between atoms: _291  and  _292
REMARK  122  A    between atoms: _302  and  _304
REMARK  123  A    between atoms: _304  and  _305
REMARK  124  A    between atoms: _307  and  _309
REMARK  125  A    between atoms: _309  and  _310
REMARK  126  A    between atoms: _309  and  _312
REMARK  127  A    between atoms: _312  and  _313
REMARK  128  A    between atoms: _316  and  _318
REMARK  129  A    between atoms: _318  and  _319
REMARK  130  A    between atoms: _318  and  _321
REMARK  131  A    between atoms: _321  and  _322
REMARK  132  A    between atoms: _325  and  _327
REMARK  133  A    between atoms: _327  and  _328
REMARK  134  A    between atoms: _330  and  _332
REMARK  135  A    between atoms: _332  and  _333
REMARK  136  A    between atoms: _332  and  _335
REMARK  137  A    between atoms: _335  and  _336
REMARK  138  A    between atoms: _339  and  _341
REMARK  139  A    between atoms: _341  and  _342
REMARK  140  A    between atoms: _345  and  _347
REMARK  141  A    between atoms: _347  and  _348
REMARK  142  A    between atoms: _347  and  _350
REMARK  143  A    between atoms: _350  and  _351
REMARK  144  A    between atoms: _356  and  _357
REMARK  145  A    between atoms: _359  and  _361
REMARK  146  A    between atoms: _361  and  _362
REMARK  147  A    between atoms: _361  and  _364
REMARK  148  A    between atoms: _364  and  _365
REMARK  149  A    between atoms: _365  and  _366
REMARK  150  A    between atoms: _369  and  _371
REMARK  151  A    between atoms: _371  and  _372
REMARK  152  A    between atoms: _371  and  _374
REMARK  153  A    between atoms: _374  and  _375
REMARK  154  A    between atoms: _378  and  _380
REMARK  155  A    between atoms: _380  and  _381
REMARK  156  A    between atoms: _384  and  _386
REMARK  157  A    between atoms: _386  and  _387
REMARK  158  A    between atoms: _386  and  _389
REMARK  159  A    between atoms: _389  and  _390
REMARK  160  A    between atoms: _390  and  _391
REMARK  161  A    between atoms: _391  and  _392
REMARK  162  A    between atoms: _401  and  _403
REMARK  163  A    between atoms: _403  and  _404
REMARK  164  A    between atoms: _403  and  _406
REMARK  165  A    between atoms: _406  and  _407
REMARK  166  A    between atoms: _417  and  _419
REMARK  167  A    between atoms: _419  and  _420
REMARK  168  A    between atoms: _419  and  _422
REMARK  169  A    between atoms: _422  and  _423
REMARK  170  A    between atoms: _428  and  _429
REMARK  171  A    between atoms: _431  and  _433
REMARK  172  A    between atoms: _433  and  _434
REMARK  173  A    between atoms: _433  and  _436
REMARK  174  A    between atoms: _436  and  _437
REMARK  175  A    between atoms: _442  and  _443
REMARK  176  A    between atoms: _445  and  _447
REMARK  177  A    between atoms: _447  and  _448
REMARK  178  A    between atoms: _447  and  _450
REMARK  179  A    between atoms: _450  and  _451
REMARK  180  A    between atoms: _451  and  _452
REMARK  181  A    between atoms: _452  and  _453
REMARK  182  A    between atoms: _453  and  _454
REMARK  183  A    between atoms: _458  and  _460
REMARK  184  A    between atoms: _460  and  _461
REMARK  185  A    between atoms: _460  and  _463
REMARK  186  A    between atoms: _463  and  _464
REMARK  187  A    between atoms: _467  and  _469
REMARK  188  A    between atoms: _469  and  _470
REMARK  189  A    between atoms: _469  and  _472
REMARK  190  A    between atoms: _475  and  _477
REMARK  191  A    between atoms: _477  and  _478
REMARK  192  A    between atoms: _477  and  _480
REMARK  193  A    between atoms: _480  and  _481
REMARK  194  A    between atoms: _484  and  _486
REMARK  195  A    between atoms: _486  and  _487
REMARK  196  A    between atoms: _486  and  _489
REMARK  197  A    between atoms: _489  and  _490
REMARK  198  A    between atoms: _492  and  _494
REMARK  199  A    between atoms: _494  and  _495
REMARK  200  A    between atoms: _497  and  _499
REMARK  201  A    between atoms: _499  and  _500
REMARK  202  A    between atoms: _499  and  _502
REMARK  203  A    between atoms: _502  and  _503
REMARK  204  A    between atoms: _506  and  _508
REMARK  205  A    between atoms: _508  and  _509
REMARK  206  A    between atoms: _508  and  _511
REMARK  207  A    between atoms: _511  and  _512
REMARK  208  A    between atoms: _515  and  _517
REMARK  209  A    between atoms: _517  and  _518
REMARK  210  A    between atoms: _517  and  _520
REMARK  211  A    between atoms: _520  and  _521
REMARK  212  A    between atoms: _526  and  _528
REMARK  213  A    between atoms: _528  and  _529
REMARK  214  A    between atoms: _528  and  _531
REMARK  215  A    between atoms: _531  and  _532
REMARK  216  A    between atoms: _532  and  _533
REMARK  217  A    between atoms: _533  and  _534
REMARK  218  A    between atoms: _543  and  _545
REMARK  219  A    between atoms: _545  and  _546
REMARK  220  A    between atoms: _545  and  _548
REMARK  221  A    between atoms: _548  and  _549
REMARK  222  A    between atoms: _549  and  _550
REMARK  223  A    between atoms: _550  and  _551
REMARK  224  A    between atoms: _560  and  _562
REMARK  225  A    between atoms: _562  and  _563
REMARK  226  A    between atoms: _562  and  _565
REMARK  227  A    between atoms: _565  and  _566
REMARK  228  A    between atoms: _568  and  _570
REMARK  229  A    between atoms: _570  and  _571
REMARK  230  A    between atoms: _570  and  _573
REMARK  231  A    between atoms: _573  and  _574
REMARK  232  A    between atoms: _574  and  _575
REMARK  233  A    between atoms: _580  and  _582
REMARK  234  A    between atoms: _582  and  _583
REMARK  235  A    between atoms: _582  and  _585
REMARK  236  A    between atoms: _585  and  _586
REMARK  237  A    between atoms: _589  and  _591
REMARK  238  A    between atoms: _591  and  _592
REMARK  239  A    between atoms: _591  and  _594
REMARK  240  A    between atoms: _594  and  _595
REMARK  241  A    between atoms: _598  and  _600
REMARK  242  A    between atoms: _600  and  _601
REMARK  243  A    between atoms: _600  and  _603
REMARK  244  A    between atoms: _606  and  _608
REMARK  245  A    between atoms: _608  and  _609
REMARK  246  A    between atoms: _611  and  _613
REMARK  247  A    between atoms: _613  and  _614
REMARK  248  A    between atoms: _617  and  _619
REMARK  249  A    between atoms: _619  and  _620
REMARK  250  A    between atoms: _619  and  _622
REMARK                            x       y       z     vdW  Elec       q    Type
REMARK                         _______ _______ _______ _____ _____    ______ ____
ROOT
ATOM      1  C   THR A   4      21.663   4.071  27.024  0.00  0.00    +0.243 C 
ATOM      2  O   THR A   4      20.902   3.932  27.975  0.00  0.00    -0.273 OA
ATOM      3  N   GLY A   5      21.798   5.217  26.354  0.00  0.00    -0.295 N 
ATOM      4  H   GLY A   5      22.449   5.260  25.544  0.00  0.00    +0.150 HD
ENDROOT
BRANCH   3   5
ATOM      5  CA  GLY A   5      21.053   6.408  26.733  0.00  0.00    +0.176 C 
BRANCH   5   6
ATOM      6  C   GLY A   5      19.787   6.703  25.938  0.00  0.00    +0.243 C 
ATOM      7  O   GLY A   5      19.123   7.705  26.191  0.00  0.00    -0.273 OA
ATOM      8  N   SER A   6      19.459   5.854  24.966  0.00  0.00    -0.295 N 
ATOM      9  H   SER A   6      20.083   5.045  24.770  0.00  0.00    +0.150 HD
BRANCH   8  10
ATOM     10  CA  SER A   6      18.241   6.027  24.163  0.00  0.00    +0.178 C 
BRANCH  10  11
ATOM     11  C   SER A   6      17.707   4.636  23.824  0.00  0.00    +0.243 C 
ATOM     12  O   SER A   6      18.333   3.632  24.167  0.00  0.00    -0.273 OA
ATOM     13  N   SER A   7      16.567   4.566  23.145  0.00  0.00    -0.295 N 
ATOM     14  H   SER A   7      16.102   5.438  22.820  0.00  0.00    +0.150 HD
BRANCH  13  15
ATOM     15  CA  SER A   7      15.968   3.271  22.855  0.00  0.00    +0.178 C 
BRANCH  15  16
ATOM     16  C   SER A   7      15.539   3.001  21.409  0.00  0.00    +0.243 C 
ATOM     17  O   SER A   7      14.766   2.076  21.158  0.00  0.00    -0.273 OA
ATOM     18  N   ASN A   8      16.027   3.801  20.466  0.00  0.00    -0.298 N 
ATOM     19  H   ASN A   8      16.658   4.582  20.735  0.00  0.00    +0.150 HD
BRANCH  18  20
ATOM     20  CA  ASN A   8      15.691   3.601  19.057  0.00  0.00    +0.146 C 
BRANCH  20  21
ATOM     21  C   ASN A   8      16.874   3.075  18.247  0.00  0.00    +0.227 C 
ATOM     22  O   ASN A   8      18.007   3.530  18.409  0.00  0.00    -0.286 OA
ENDBRANCH  20  21
BRANCH  20  23
ATOM     23  CB  ASN A   8      15.212   4.909  18.412  0.00  0.00    +0.112 C 
BRANCH  23  24
ATOM     24  CG  ASN A   8      13.771   5.224  18.733  0.00  0.00    +0.222 C 
ATOM     25  OD1 ASN A   8      13.449   5.677  19.836  0.00  0.00    -0.275 OA
ATOM     26  ND2 ASN A   8      12.883   4.974  17.768  0.00  0.00    -0.329 N 
ATOM     27 HD21 ASN A   8      11.873   5.161  17.930  0.00  0.00    +0.145 HD
ATOM     28 HD22 ASN A   8      13.201   4.592  16.854  0.00  0.00    +0.145 HD
ENDBRANCH  23  24
ENDBRANCH  20  23
ENDBRANCH  18  20
ENDBRANCH  15  16
BRANCH  15  29
ATOM     29  CB  SER A   7      14.770   3.072  23.788  0.00  0.00    +0.166 C 
BRANCH  29  30
ATOM     30  OG  SER A   7      15.149   3.263  25.143  0.00  0.00    -0.380 OA
ATOM     31  H   SER A   7      14.361   3.130  25.727  0.00  0.00    +0.211 HD
ENDBRANCH  29  30
ENDBRANCH  15  29
ENDBRANCH  13  15
ENDBRANCH  10  11
BRANCH  10  32
ATOM     32  CB  SER A   6      18.516   6.827  22.882  0.00  0.00    +0.166 C 
BRANCH  32  33
ATOM     33  OG  SER A   6      19.364   6.121  22.000  0.00  0.00    -0.380 OA
ATOM     34  H   SER A   6      20.228   5.941  22.448  0.00  0.00    +0.211 HD
ENDBRANCH  32  33
ENDBRANCH  10  32
ENDBRANCH   8  10
ENDBRANCH   5   6
ENDBRANCH   3   5
BRANCH   1  35
ATOM     35  CA  THR A   4      22.511   2.898  26.539  0.00  0.00    +0.176 C 
BRANCH  35  37
ATOM     36  C   ASP A   3      22.946   3.379  24.219  0.00  0.00    +0.241 C 
ATOM     37  N   THR A   4      23.395   3.331  25.465  0.00  0.00    -0.295 N 
ATOM     38  H   THR A   4      24.377   3.602  25.676  0.00  0.00    +0.150 HD
ATOM     39  O   ASP A   3      21.793   3.067  23.925  0.00  0.00    -0.273 OA
BRANCH  36  40
ATOM     40  CA  ASP A   3      23.934   3.857  23.156  0.00  0.00    +0.160 C 
BRANCH  40  43
ATOM     41  C   VAL A   2      25.810   2.735  22.124  0.00  0.00    +0.241 C 
ATOM     42  O   VAL A   2      26.611   3.460  22.713  0.00  0.00    -0.273 OA
ATOM     43  N   ASP A   3      24.495   2.834  22.290  0.00  0.00    -0.297 N 
ATOM     44  H   ASP A   3      23.862   2.173  21.796  0.00  0.00    +0.150 HD
BRANCH  41  45
ATOM     45  CA  VAL A   2      26.302   1.662  21.156  0.00  0.00    +0.148 C 
BRANCH  45  47
ATOM     46  C   LEU A   1      26.188   2.776  18.990  0.00  0.00    +0.238 C 
ATOM     47  N   VAL A   2      26.916   2.333  20.010  0.00  0.00    -0.297 N 
ATOM     48  H   VAL A   2      27.947   2.467  19.993  0.00  0.00    +0.150 HD
ATOM     49  O   LEU A   1      24.966   2.645  18.937  0.00  0.00    -0.274 OA
BRANCH  46  50
ATOM     50  CA  LEU A   1      26.941   3.478  17.864  0.00  0.00    +0.145 C 
BRANCH  50  51
ATOM     51  N   LEU A   1      26.602   2.892  16.574  0.00  0.00    -0.238 NA
ATOM     52  H   LEU A   1      26.138   3.489  15.860  0.00  0.00    +0.142 HD
ENDBRANCH  50  51
BRANCH  50  53
ATOM     53  CB  LEU A   1      26.573   4.968  17.874  0.00  0.00    +0.026 C 
BRANCH  53  54
ATOM     54  CG  LEU A   1      26.688   5.697  19.218  0.00  0.00    +0.002 C 
ATOM     55  CD2 LEU A   1      28.159   5.941  19.544  0.00  0.00    +0.000 C 
ATOM     56  CD1 LEU A   1      25.932   7.023  19.151  0.00  0.00    +0.000 C 
ENDBRANCH  53  54
ENDBRANCH  50  53
ENDBRANCH  46  50
ENDBRANCH  45  47
BRANCH  45  57
ATOM     57  CB  VAL A   2      27.320   0.754  21.872  0.00  0.00    +0.027 C 
ATOM     58  CG2 VAL A   2      26.722   0.213  23.174  0.00  0.00    +0.002 C 
ATOM     59  CG1 VAL A   2      27.723  -0.395  20.943  0.00  0.00    +0.002 C 
ENDBRANCH  45  57
ENDBRANCH  41  45
ENDBRANCH  40  43
BRANCH  40  60
ATOM     60  CB  ASP A   3      23.281   4.937  22.289  0.00  0.00    +0.143 C 
BRANCH  60  61
ATOM     61  CG  ASP A   3      22.690   6.057  23.111  0.00  0.00    +0.367 C 
ATOM     62  OD2 ASP A   3      23.189   6.284  24.235  0.00  0.00    -0.246 OA
ATOM     63  OD1 ASP A   3      21.741   6.713  22.631  0.00  0.00    -0.246 OA
ENDBRANCH  60  61
ENDBRANCH  40  60
ENDBRANCH  36  40
ENDBRANCH  35  37
BRANCH  35  64
ATOM     64  CB  THR A   4      23.309   2.335  27.733  0.00  0.00    +0.137 C 
ATOM     65  CG2 THR A   4      24.136   1.135  27.300  0.00  0.00    +0.034 C 
BRANCH  64  66
ATOM     66  OG1 THR A   4      24.172   3.356  28.258  0.00  0.00    -0.382 OA
ATOM     67  HG1 THR A   4      23.626   4.125  28.559  0.00  0.00    +0.210 HD
ENDBRANCH  64  66
ENDBRANCH  35  64
ENDBRANCH   1  35
TORSDOF 29
REMARK  Name = ../refined-set-2016/3lpi/3lpi_pocket.pdb
REMARK  250 active torsions:
REMARK  status: ('A' for Active; 'I' for Inactive)
REMARK    1  A    between atoms: _1  and  _3
REMARK    2  A    between atoms: _3  and  _4
REMARK    3  A    between atoms: _3  and  _6
REMARK    4  A    between atoms: _6  and  _7
REMARK    5  A    between atoms: _7  and  _8
REMARK    6  A    between atoms: _8  and  _9
REMARK    7  A    between atoms: _9  and  _10
REMARK    8  A    between atoms: _14  and  _16
REMARK    9  A    between atoms: _16  and  _17
REMARK   10  A    between atoms: _16  and  _19
REMARK   11  A    between atoms: _19  and  _20
REMARK   12  A    between atoms: _22  and  _24
REMARK   13  A    between atoms: _24  and  _25
REMARK   14  A    between atoms: _27  and  _29
REMARK   15  A    between atoms: _29  and  _30
REMARK   16  A    between atoms: _29  and  _32
REMARK   17  A    between atoms: _32  and  _33
REMARK   18  A    between atoms: _33  and  _34
REMARK   19  A    between atoms: _39  and  _41
REMARK   20  A    between atoms: _41  and  _42
REMARK   21  A    between atoms: _44  and  _46
REMARK   22  A    between atoms: _46  and  _47
REMARK   23  A    between atoms: _46  and  _49
REMARK   24  A    between atoms: _49  and  _50
REMARK   25  A    between atoms: _55  and  _56
REMARK   26  A    between atoms: _58  and  _60
REMARK   27  A    between atoms: _60  and  _61
REMARK   28  A    between atoms: _60  and  _63
REMARK   29  A    between atoms: _63  and  _64
REMARK   30  A    between atoms: _67  and  _69
REMARK   31  A    between atoms: _69  and  _70
REMARK   32  A    between atoms: _69  and  _72
REMARK   33  A    between atoms: _75  and  _77
REMARK   34  A    between atoms: _77  and  _78
REMARK   35  A    between atoms: _77  and  _80
REMARK   36  A    between atoms: _80  and  _81
REMARK   37  A    between atoms: _84  and  _86
REMARK   38  A    between atoms: _86  and  _87
REMARK   39  A    between atoms: _86  and  _89
REMARK   40  A    between atoms: _89  and  _90
REMARK   41  A    between atoms: _93  and  _95
REMARK   42  A    between atoms: _95  and  _96
REMARK   43  A    between atoms: _98  and  _100
REMARK   44  A    between atoms: _100  and  _101
REMARK   45  A    between atoms: _100  and  _103
REMARK   46  A    between atoms: _103  and  _104
REMARK   47  A    between atoms: _106  and  _108
REMARK   48  A    between atoms: _108  and  _109
REMARK   49  A    between atoms: _108  and  _111
REMARK   50  A    between atoms: _111  and  _112
REMARK   51  A    between atoms: _114  and  _116
REMARK   52  A    between atoms: _116  and  _117
REMARK   53  A    between atoms: _116  and  _119
REMARK   54  A    between atoms: _119  and  _120
REMARK   55  A    between atoms: _125  and  _127
REMARK   56  A    between atoms: _127  and  _128
REMARK   57  A    between atoms: _127  and  _130
REMARK   58  A    between atoms: _130  and  _131
REMARK   59  A    between atoms: _136  and  _137
REMARK   60  A    between atoms: _139  and  _141
REMARK   61  A    between atoms: _141  and  _142
REMARK   62  A    between atoms: _141  and  _144
REMARK   63  A    between atoms: _148  and  _149
REMARK   64  A    between atoms: _154  and  _156
REMARK   65  A    between atoms: _156  and  _157
REMARK   66  A    between atoms: _156  and  _159
REMARK   67  A    between atoms: _159  and  _160
REMARK   68  A    between atoms: _165  and  _166
REMARK   69  A    between atoms: _168  and  _170
REMARK   70  A    between atoms: _170  and  _171
REMARK   71  A    between atoms: _170  and  _173
REMARK   72  A    between atoms: _173  and  _174
REMARK   73  A    between atoms: _177  and  _179
REMARK   74  A    between atoms: _179  and  _180
REMARK   75  A    between atoms: _179  and  _182
REMARK   76  A    between atoms: _182  and  _183
REMARK   77  A    between atoms: _183  and  _184
REMARK   78  A    between atoms: _189  and  _191
REMARK   79  A    between atoms: _191  and  _192
REMARK   80  A    between atoms: _194  and  _196
REMARK   81  A    between atoms: _196  and  _197
REMARK   82  A    between atoms: _196  and  _199
REMARK   83  A    between atoms: _199  and  _200
REMARK   84  A    between atoms: _200  and  _201
REMARK   85  A    between atoms: _201  and  _202
REMARK   86  A    between atoms: _202  and  _203
REMARK   87  A    between atoms: _207  and  _209
REMARK   88  A    between atoms: _209  and  _210
REMARK   89  A    between atoms: _209  and  _212
REMARK   90  A    between atoms: _212  and  _213
REMARK   91  A    between atoms: _223  and  _225
REMARK   92  A    between atoms: _225  and  _226
REMARK   93  A    between atoms: _225  and  _228
REMARK   94  A    between atoms: _228  and  _229
REMARK   95  A    between atoms: _232  and  _234
REMARK   96  A    between atoms: _234  and  _235
REMARK   97  A    between atoms: _234  and  _237
REMARK   98  A    between atoms: _237  and  _238
REMARK   99  A    between atoms: _238  and  _239
REMARK  100  A    between atoms: _239  and  _240
REMARK  101  A    between atoms: _240  and  _241
REMARK  102  A    between atoms: _245  and  _247
REMARK  103  A    between atoms: _247  and  _248
REMARK  104  A    between atoms: _247  and  _250
REMARK  105  A    between atoms: _250  and  _251
REMARK  106  A    between atoms: _257  and  _259
REMARK  107  A    between atoms: _259  and  _260
REMARK  108  A    between atoms: _259  and  _262
REMARK  109  A    between atoms: _262  and  _263
REMARK  110  A    between atoms: _269  and  _271
REMARK  111  A    between atoms: _271  and  _272
REMARK  112  A    between atoms: _271  and  _274
REMARK  113  A    between atoms: _274  and  _275
REMARK  114  A    between atoms: _278  and  _280
REMARK  115  A    between atoms: _280  and  _281
REMARK  116  A    between atoms: _280  and  _283
REMARK  117  A    between atoms: _283  and  _284
REMARK  118  A    between atoms: _286  and  _288
REMARK  119  A    between atoms: _288  and  _289
REMARK  120  A    between atoms: _288  and  _291
REMARK  121  A    between atoms: _291  and  _292
REMARK  122  A    between atoms: _302  and  _304
REMARK  123  A    between atoms: _304  and  _305
REMARK  124  A    between atoms: _307  and  _309
REMARK  125  A    between atoms: _309  and  _310
REMARK  126  A    between atoms: _309  and  _312
REMARK  127  A    between atoms: _312  and  _313
REMARK  128  A    between atoms: _316  and  _318
REMARK  129  A    between atoms: _318  and  _319
REMARK  130  A    between atoms: _318  and  _321
REMARK  131  A    between atoms: _321  and  _322
REMARK  132  A    between atoms: _325  and  _327
REMARK  133  A    between atoms: _327  and  _328
REMARK  134  A    between atoms: _330  and  _332
REMARK  135  A    between atoms: _332  and  _333
REMARK  136  A    between atoms: _332  and  _335
REMARK  137  A    between atoms: _335  and  _336
REMARK  138  A    between atoms: _339  and  _341
REMARK  139  A    between atoms: _341  and  _342
REMARK  140  A    between atoms: _345  and  _347
REMARK  141  A    between atoms: _347  and  _348
REMARK  142  A    between atoms: _347  and  _350
REMARK  143  A    between atoms: _350  and  _351
REMARK  144  A    between atoms: _356  and  _357
REMARK  145  A    between atoms: _359  and  _361
REMARK  146  A    between atoms: _361  and  _362
REMARK  147  A    between atoms: _361  and  _364
REMARK  148  A    between atoms: _364  and  _365
REMARK  149  A    between atoms: _365  and  _366
REMARK  150  A    between atoms: _369  and  _371
REMARK  151  A    between atoms: _371  and  _372
REMARK  152  A    between atoms: _371  and  _374
REMARK  153  A    between atoms: _374  and  _375
REMARK  154  A    between atoms: _378  and  _380
REMARK  155  A    between atoms: _380  and  _381
REMARK  156  A    between atoms: _384  and  _386
REMARK  157  A    between atoms: _386  and  _387
REMARK  158  A    between atoms: _386  and  _389
REMARK  159  A    between atoms: _389  and  _390
REMARK  160  A    between atoms: _390  and  _391
REMARK  161  A    between atoms: _391  and  _392
REMARK  162  A    between atoms: _401  and  _403
REMARK  163  A    between atoms: _403  and  _404
REMARK  164  A    between atoms: _403  and  _406
REMARK  165  A    between atoms: _406  and  _407
REMARK  166  A    between atoms: _417  and  _419
REMARK  167  A    between atoms: _419  and  _420
REMARK  168  A    between atoms: _419  and  _422
REMARK  169  A    between atoms: _422  and  _423
REMARK  170  A    between atoms: _428  and  _429
REMARK  171  A    between atoms: _431  and  _433
REMARK  172  A    between atoms: _433  and  _434
REMARK  173  A    between atoms: _433  and  _436
REMARK  174  A    between atoms: _436  and  _437
REMARK  175  A    between atoms: _442  and  _443
REMARK  176  A    between atoms: _445  and  _447
REMARK  177  A    between atoms: _447  and  _448
REMARK  178  A    between atoms: _447  and  _450
REMARK  179  A    between atoms: _450  and  _451
REMARK  180  A    between atoms: _451  and  _452
REMARK  181  A    between atoms: _452  and  _453
REMARK  182  A    between atoms: _453  and  _454
REMARK  183  A    between atoms: _458  and  _460
REMARK  184  A    between atoms: _460  and  _461
REMARK  185  A    between atoms: _460  and  _463
REMARK  186  A    between atoms: _463  and  _464
REMARK  187  A    between atoms: _467  and  _469
REMARK  188  A    between atoms: _469  and  _470
REMARK  189  A    between atoms: _469  and  _472
REMARK  190  A    between atoms: _475  and  _477
REMARK  191  A    between atoms: _477  and  _478
REMARK  192  A    between atoms: _477  and  _480
REMARK  193  A    between atoms: _480  and  _481
REMARK  194  A    between atoms: _484  and  _486
REMARK  195  A    between atoms: _486  and  _487
REMARK  196  A    between atoms: _486  and  _489
REMARK  197  A    between atoms: _489  and  _490
REMARK  198  A    between atoms: _492  and  _494
REMARK  199  A    between atoms: _494  and  _495
REMARK  200  A    between atoms: _497  and  _499
REMARK  201  A    between atoms: _499  and  _500
REMARK  202  A    between atoms: _499  and  _502
REMARK  203  A    between atoms: _502  and  _503
REMARK  204  A    between atoms: _506  and  _508
REMARK  205  A    between atoms: _508  and  _509
REMARK  206  A    between atoms: _508  and  _511
REMARK  207  A    between atoms: _511  and  _512
REMARK  208  A    between atoms: _515  and  _517
REMARK  209  A    between atoms: _517  and  _518
REMARK  210  A    between atoms: _517  and  _520
REMARK  211  A    between atoms: _520  and  _521
REMARK  212  A    between atoms: _526  and  _528
REMARK  213  A    between atoms: _528  and  _529
REMARK  214  A    between atoms: _528  and  _531
REMARK  215  A    between atoms: _531  and  _532
REMARK  216  A    between atoms: _532  and  _533
REMARK  217  A    between atoms: _533  and  _534
REMARK  218  A    between atoms: _543  and  _545
REMARK  219  A    between atoms: _545  and  _546
REMARK  220  A    between atoms: _545  and  _548
REMARK  221  A    between atoms: _548  and  _549
REMARK  222  A    between atoms: _549  and  _550
REMARK  223  A    between atoms: _550  and  _551
REMARK  224  A    between atoms: _560  and  _562
REMARK  225  A    between atoms: _562  and  _563
REMARK  226  A    between atoms: _562  and  _565
REMARK  227  A    between atoms: _565  and  _566
REMARK  228  A    between atoms: _568  and  _570
REMARK  229  A    between atoms: _570  and  _571
REMARK  230  A    between atoms: _570  and  _573
REMARK  231  A    between atoms: _573  and  _574
REMARK  232  A    between atoms: _574  and  _575
REMARK  233  A    between atoms: _580  and  _582
REMARK  234  A    between atoms: _582  and  _583
REMARK  235  A    between atoms: _582  and  _585
REMARK  236  A    between atoms: _585  and  _586
REMARK  237  A    between atoms: _589  and  _591
REMARK  238  A    between atoms: _591  and  _592
REMARK  239  A    between atoms: _591  and  _594
REMARK  240  A    between atoms: _594  and  _595
REMARK  241  A    between atoms: _598  and  _600
REMARK  242  A    between atoms: _600  and  _601
REMARK  243  A    between atoms: _600  and  _603
REMARK  244  A    between atoms: _606  and  _608
REMARK  245  A    between atoms: _608  and  _609
REMARK  246  A    between atoms: _611  and  _613
REMARK  247  A    between atoms: _613  and  _614
REMARK  248  A    between atoms: _617  and  _619
REMARK  249  A    between atoms: _619  and  _620
REMARK  250  A    between atoms: _619  and  _622
REMARK                            x       y       z     vdW  Elec       q    Type
REMARK                         _______ _______ _______ _____ _____    ______ ____
ROOT
ATOM      1  CA  THR A   5      20.153  16.868  23.418  0.00  0.00    +0.176 C 
ENDROOT
BRANCH   1   2
ATOM      2  C   THR A   5      21.016  17.467  22.324  0.00  0.00    +0.243 C 
ATOM      3  O   THR A   5      20.844  18.619  21.924  0.00  0.00    -0.273 OA
ATOM      4  N   GLN A   6      21.940  16.645  21.837  0.00  0.00    -0.297 N 
ATOM      5  H   GLN A   6      21.995  15.679  22.219  0.00  0.00    +0.150 HD
BRANCH   4   6
ATOM      6  CA  GLN A   6      22.876  17.031  20.797  0.00  0.00    +0.149 C 
BRANCH   6   7
ATOM      7  C   GLN A   6      22.170  17.406  19.495  0.00  0.00    +0.241 C 
ATOM      8  O   GLN A   6      21.795  18.560  19.280  0.00  0.00    -0.273 OA
ATOM      9  N   GLY A   7      22.001  16.416  18.628  0.00  0.00    -0.295 N 
ATOM     10  H   GLY A   7      22.334  15.460  18.865  0.00  0.00    +0.150 HD
BRANCH   9  11
ATOM     11  CA  GLY A   7      21.357  16.657  17.355  0.00  0.00    +0.176 C 
BRANCH  11  12
ATOM     12  C   GLY A   7      20.032  15.940  17.227  0.00  0.00    +0.243 C 
ATOM     13  O   GLY A   7      19.405  15.562  18.222  0.00  0.00    -0.273 OA
ATOM     14  N   LYS A   8      19.602  15.744  15.989  0.00  0.00    -0.297 N 
ATOM     15  H   LYS A   8      20.177  16.070  15.186  0.00  0.00    +0.150 HD
BRANCH  14  16
ATOM     16  CA  LYS A   8      18.339  15.080  15.746  0.00  0.00    +0.149 C 
BRANCH  16  17
ATOM     17  C   LYS A   8      18.288  14.488  14.352  0.00  0.00    +0.241 C 
ATOM     18  N   TRP A   9      17.309  13.621  14.143  0.00  0.00    -0.298 N 
ATOM     19  H   TRP A   9      16.676  13.372  14.930  0.00  0.00    +0.150 HD
ATOM     20  O   LYS A   8      19.119  14.795  13.493  0.00  0.00    -0.273 OA
BRANCH  18  21
ATOM     21  CA  TRP A   9      17.098  13.011  12.846  0.00  0.00    +0.141 C 
BRANCH  21  22
ATOM     22  C   TRP A   9      15.636  12.639  12.705  0.00  0.00    +0.227 C 
ATOM     23  O   TRP A   9      14.899  12.568  13.683  0.00  0.00    -0.286 OA
ENDBRANCH  21  22
BRANCH  21  24
ATOM     24  CB  TRP A   9      17.978  11.763  12.650  0.00  0.00    +0.056 C 
BRANCH  24  25
ATOM     25  CG  TRP A   9      17.850  10.676  13.694  0.00  0.00    -0.002 A 
ATOM     26  CD1 TRP A   9      18.765  10.366  14.664  0.00  0.00    +0.068 A 
ATOM     27  NE1 TRP A   9      18.314   9.310  15.422  0.00  0.00    -0.352 N 
ATOM     28  HE1 TRP A   9      18.822   8.881  16.222  0.00  0.00    +0.166 HD
ATOM     29  CE2 TRP A   9      17.087   8.914  14.954  0.00  0.00    +0.056 A 
ATOM     30  CZ2 TRP A   9      16.241   7.894  15.399  0.00  0.00    +0.017 A 
ATOM     31  CH2 TRP A   9      15.054   7.718  14.735  0.00  0.00    +0.001 A 
ATOM     32  CZ3 TRP A   9      14.697   8.530  13.646  0.00  0.00    +0.000 A 
ATOM     33  CE3 TRP A   9      15.540   9.548  13.201  0.00  0.00    +0.001 A 
ATOM     34  CD2 TRP A   9      16.759   9.750  13.863  0.00  0.00    +0.013 A 
ENDBRANCH  24  25
ENDBRANCH  21  24
ENDBRANCH  18  21
ENDBRANCH  16  17
BRANCH  16  35
ATOM     35  CB  LYS A   8      17.200  16.081  15.903  0.00  0.00    +0.029 C 
BRANCH  35  36
ATOM     36  CG  LYS A   8      17.314  17.256  14.944  0.00  0.00    +0.000 C 
BRANCH  36  37
ATOM     37  CD  LYS A   8      16.333  18.355  15.286  0.00  0.00    -0.024 C 
BRANCH  37  38
ATOM     38  CE  LYS A   8      16.532  19.556  14.384  0.00  0.00    -0.086 C 
BRANCH  38  39
ATOM     39  NZ  LYS A   8      15.667  20.696  14.794  0.00  0.00    +0.380 N 
ATOM     40  HZ1 LYS A   8      15.900  20.974  15.769  0.00  0.00    -0.089 HD
ATOM     41  HZ2 LYS A   8      14.669  20.408  14.744  0.00  0.00    -0.089 HD
ATOM     42  HZ3 LYS A   8      15.829  21.500  14.155  0.00  0.00    -0.089 HD
ENDBRANCH  38  39
ENDBRANCH  37  38
ENDBRANCH  36  37
ENDBRANCH  35  36
ENDBRANCH  16  35
ENDBRANCH  14  16
ENDBRANCH  11  12
ENDBRANCH   9  11
ENDBRANCH   6   7
BRANCH   6  43
ATOM     43  CB  GLN A   6      23.849  15.880  20.532  0.00  0.00    +0.039 C 
BRANCH  43  44
ATOM     44  CG  GLN A   6      25.262  16.319  20.185  0.00  0.00    +0.087 C 
BRANCH  44  45
ATOM     45  CD  GLN A   6      25.312  17.383  19.102  0.00  0.00    +0.219 C 
ATOM     46  OE1 GLN A   6      24.778  18.479  19.268  0.00  0.00    -0.275 OA
ATOM     47  NE2 GLN A   6      25.961  17.067  17.989  0.00  0.00    -0.329 N 
ATOM     48 HE21 GLN A   6      26.398  16.128  17.891  0.00  0.00    +0.145 HD
ATOM     49 HE22 GLN A   6      26.033  17.758  17.215  0.00  0.00    +0.145 HD
ENDBRANCH  44  45
ENDBRANCH  43  44
ENDBRANCH   6  43
ENDBRANCH   4   6
ENDBRANCH   1   2
BRANCH   1  51
ATOM     50  C   TYR A   4      18.869  15.633  21.798  0.00  0.00    +0.241 C 
ATOM     51  N   THR A   5      19.661  15.616  22.864  0.00  0.00    -0.295 N 
ATOM     52  H   THR A   5      19.928  14.711  23.301  0.00  0.00    +0.150 HD
ATOM     53  O   TYR A   4      18.502  16.679  21.260  0.00  0.00    -0.273 OA
BRANCH  50  54
ATOM     54  CA  TYR A   4      18.411  14.290  21.248  0.00  0.00    +0.153 C 
BRANCH  54  57
ATOM     55  C   PRO A   3      16.302  14.462  20.057  0.00  0.00    +0.241 C 
ATOM     56  O   PRO A   3      15.685  13.992  21.016  0.00  0.00    -0.273 OA
ATOM     57  N   TYR A   4      17.620  14.610  20.062  0.00  0.00    -0.297 N 
ATOM     58  H   TYR A   4      18.098  14.960  19.207  0.00  0.00    +0.150 HD
BRANCH  55  64
ATOM     59  C   VAL A   2      14.902  12.868  17.571  0.00  0.00    +0.244 C 
ATOM     60  N   PRO A   3      14.600  13.824  18.450  0.00  0.00    -0.272 N 
ATOM     61  CD  PRO A   3      13.242  14.210  18.875  0.00  0.00    +0.094 C 
ATOM     62  CG  PRO A   3      13.487  15.498  19.657  0.00  0.00    +0.024 C 
ATOM     63  CB  PRO A   3      14.686  16.091  18.973  0.00  0.00    +0.031 C 
ATOM     64  CA  PRO A   3      15.568  14.867  18.776  0.00  0.00    +0.152 C 
ATOM     65  O   VAL A   2      15.979  12.841  16.977  0.00  0.00    -0.273 OA
BRANCH  59  66
ATOM     66  CA  VAL A   2      13.833  11.823  17.314  0.00  0.00    +0.149 C 
BRANCH  66  69
ATOM     67  C   TYR A   1      11.841  12.059  15.980  0.00  0.00    +0.239 C 
ATOM     68  O   TYR A   1      11.135  12.011  16.980  0.00  0.00    -0.274 OA
ATOM     69  N   VAL A   2      13.163  11.967  16.034  0.00  0.00    -0.297 N 
ATOM     70  H   VAL A   2      13.721  11.998  15.157  0.00  0.00    +0.150 HD
BRANCH  67  71
ATOM     71  CA  TYR A   1      11.220  12.207  14.601  0.00  0.00    +0.149 C 
BRANCH  71  72
ATOM     72  N   TYR A   1      10.294  11.108  14.371  0.00  0.00    -0.238 NA
ATOM     73  H   TYR A   1       9.504  10.965  15.032  0.00  0.00    +0.142 HD
ENDBRANCH  71  72
BRANCH  71  74
ATOM     74  CB  TYR A   1      10.483  13.540  14.500  0.00  0.00    +0.053 C 
BRANCH  74  75
ATOM     75  CG  TYR A   1      11.258  14.720  15.039  0.00  0.00    -0.020 A 
ATOM     76  CD2 TYR A   1      10.684  15.580  15.968  0.00  0.00    -0.001 A 
ATOM     77  CE2 TYR A   1      11.367  16.681  16.441  0.00  0.00    +0.036 A 
ATOM     78  CZ  TYR A   1      12.644  16.940  15.990  0.00  0.00    +0.134 A 
ATOM     79  CE1 TYR A   1      13.243  16.101  15.071  0.00  0.00    +0.036 A 
ATOM     80  CD1 TYR A   1      12.548  14.995  14.599  0.00  0.00    -0.001 A 
BRANCH  78  81
ATOM     81  OH  TYR A   1      13.310  18.050  16.458  0.00  0.00    -0.506 OA
ATOM     82  HH  TYR A   1      14.207  18.095  16.042  0.00  0.00    +0.292 HD
ENDBRANCH  78  81
ENDBRANCH  74  75
ENDBRANCH  71  74
ENDBRANCH  67  71
ENDBRANCH  66  69
BRANCH  66  83
ATOM     83  CB  VAL A   2      14.495  10.450  17.467  0.00  0.00    +0.027 C 
ATOM     84  CG2 VAL A   2      15.224  10.389  18.801  0.00  0.00    +0.002 C 
ATOM     85  CG1 VAL A   2      13.453   9.358  17.387  0.00  0.00    +0.002 C 
ENDBRANCH  66  83
ENDBRANCH  59  66
ENDBRANCH  55  64
ENDBRANCH  54  57
BRANCH  54  86
ATOM     86  CB  TYR A   4      19.634  13.450  20.873  0.00  0.00    +0.055 C 
BRANCH  86  87
ATOM     87  CG  TYR A   4      19.302  12.137  20.208  0.00  0.00    -0.020 A 
ATOM     88  CD2 TYR A   4      19.229  10.960  20.940  0.00  0.00    -0.001 A 
ATOM     89  CE2 TYR A   4      18.928   9.756  20.325  0.00  0.00    +0.036 A 
ATOM     90  CZ  TYR A   4      18.692   9.729  18.962  0.00  0.00    +0.134 A 
ATOM     91  CE1 TYR A   4      18.755  10.882  18.221  0.00  0.00    +0.036 A 
ATOM     92  CD1 TYR A   4      19.060  12.075  18.843  0.00  0.00    -0.001 A 
BRANCH  90  93
ATOM     93  OH  TYR A   4      18.399   8.548  18.332  0.00  0.00    -0.506 OA
ATOM     94  HH  TYR A   4      18.391   7.814  18.996  0.00  0.00    +0.292 HD
ENDBRANCH  90  93
ENDBRANCH  86  87
ENDBRANCH  54  86
ENDBRANCH  50  54
ENDBRANCH   1  51
BRANCH   1  95
ATOM     95  CB  THR A   5      21.054  16.647  24.645  0.00  0.00    +0.137 C 
ATOM     96  CG2 THR A   5      21.322  17.975  25.337  0.00  0.00    +0.034 C 
BRANCH  95  97
ATOM     97  OG1 THR A   5      20.419  15.755  25.567  0.00  0.00    -0.382 OA
ATOM     98  HG1 THR A   5      21.007  15.620  26.352  0.00  0.00    +0.210 HD
ENDBRANCH  95  97
ENDBRANCH   1  95
TORSDOF 36
REMARK  Name = ../refined-set-2016/3lpi/3lpi_pocket.pdb
REMARK  250 active torsions:
REMARK  status: ('A' for Active; 'I' for Inactive)
REMARK    1  A    between atoms: _1  and  _3
REMARK    2  A    between atoms: _3  and  _4
REMARK    3  A    between atoms: _3  and  _6
REMARK    4  A    between atoms: _6  and  _7
REMARK    5  A    between atoms: _7  and  _8
REMARK    6  A    between atoms: _8  and  _9
REMARK    7  A    between atoms: _9  and  _10
REMARK    8  A    between atoms: _14  and  _16
REMARK    9  A    between atoms: _16  and  _17
REMARK   10  A    between atoms: _16  and  _19
REMARK   11  A    between atoms: _19  and  _20
REMARK   12  A    between atoms: _22  and  _24
REMARK   13  A    between atoms: _24  and  _25
REMARK   14  A    between atoms: _27  and  _29
REMARK   15  A    between atoms: _29  and  _30
REMARK   16  A    between atoms: _29  and  _32
REMARK   17  A    between atoms: _32  and  _33
REMARK   18  A    between atoms: _33  and  _34
REMARK   19  A    between atoms: _39  and  _41
REMARK   20  A    between atoms: _41  and  _42
REMARK   21  A    between atoms: _44  and  _46
REMARK   22  A    between atoms: _46  and  _47
REMARK   23  A    between atoms: _46  and  _49
REMARK   24  A    between atoms: _49  and  _50
REMARK   25  A    between atoms: _55  and  _56
REMARK   26  A    between atoms: _58  and  _60
REMARK   27  A    between atoms: _60  and  _61
REMARK   28  A    between atoms: _60  and  _63
REMARK   29  A    between atoms: _63  and  _64
REMARK   30  A    between atoms: _67  and  _69
REMARK   31  A    between atoms: _69  and  _70
REMARK   32  A    between atoms: _69  and  _72
REMARK   33  A    between atoms: _75  and  _77
REMARK   34  A    between atoms: _77  and  _78
REMARK   35  A    between atoms: _77  and  _80
REMARK   36  A    between atoms: _80  and  _81
REMARK   37  A    between atoms: _84  and  _86
REMARK   38  A    between atoms: _86  and  _87
REMARK   39  A    between atoms: _86  and  _89
REMARK   40  A    between atoms: _89  and  _90
REMARK   41  A    between atoms: _93  and  _95
REMARK   42  A    between atoms: _95  and  _96
REMARK   43  A    between atoms: _98  and  _100
REMARK   44  A    between atoms: _100  and  _101
REMARK   45  A    between atoms: _100  and  _103
REMARK   46  A    between atoms: _103  and  _104
REMARK   47  A    between atoms: _106  and  _108
REMARK   48  A    between atoms: _108  and  _109
REMARK   49  A    between atoms: _108  and  _111
REMARK   50  A    between atoms: _111  and  _112
REMARK   51  A    between atoms: _114  and  _116
REMARK   52  A    between atoms: _116  and  _117
REMARK   53  A    between atoms: _116  and  _119
REMARK   54  A    between atoms: _119  and  _120
REMARK   55  A    between atoms: _125  and  _127
REMARK   56  A    between atoms: _127  and  _128
REMARK   57  A    between atoms: _127  and  _130
REMARK   58  A    between atoms: _130  and  _131
REMARK   59  A    between atoms: _136  and  _137
REMARK   60  A    between atoms: _139  and  _141
REMARK   61  A    between atoms: _141  and  _142
REMARK   62  A    between atoms: _141  and  _144
REMARK   63  A    between atoms: _148  and  _149
REMARK   64  A    between atoms: _154  and  _156
REMARK   65  A    between atoms: _156  and  _157
REMARK   66  A    between atoms: _156  and  _159
REMARK   67  A    between atoms: _159  and  _160
REMARK   68  A    between atoms: _165  and  _166
REMARK   69  A    between atoms: _168  and  _170
REMARK   70  A    between atoms: _170  and  _171
REMARK   71  A    between atoms: _170  and  _173
REMARK   72  A    between atoms: _173  and  _174
REMARK   73  A    between atoms: _177  and  _179
REMARK   74  A    between atoms: _179  and  _180
REMARK   75  A    between atoms: _179  and  _182
REMARK   76  A    between atoms: _182  and  _183
REMARK   77  A    between atoms: _183  and  _184
REMARK   78  A    between atoms: _189  and  _191
REMARK   79  A    between atoms: _191  and  _192
REMARK   80  A    between atoms: _194  and  _196
REMARK   81  A    between atoms: _196  and  _197
REMARK   82  A    between atoms: _196  and  _199
REMARK   83  A    between atoms: _199  and  _200
REMARK   84  A    between atoms: _200  and  _201
REMARK   85  A    between atoms: _201  and  _202
REMARK   86  A    between atoms: _202  and  _203
REMARK   87  A    between atoms: _207  and  _209
REMARK   88  A    between atoms: _209  and  _210
REMARK   89  A    between atoms: _209  and  _212
REMARK   90  A    between atoms: _212  and  _213
REMARK   91  A    between atoms: _223  and  _225
REMARK   92  A    between atoms: _225  and  _226
REMARK   93  A    between atoms: _225  and  _228
REMARK   94  A    between atoms: _228  and  _229
REMARK   95  A    between atoms: _232  and  _234
REMARK   96  A    between atoms: _234  and  _235
REMARK   97  A    between atoms: _234  and  _237
REMARK   98  A    between atoms: _237  and  _238
REMARK   99  A    between atoms: _238  and  _239
REMARK  100  A    between atoms: _239  and  _240
REMARK  101  A    between atoms: _240  and  _241
REMARK  102  A    between atoms: _245  and  _247
REMARK  103  A    between atoms: _247  and  _248
REMARK  104  A    between atoms: _247  and  _250
REMARK  105  A    between atoms: _250  and  _251
REMARK  106  A    between atoms: _257  and  _259
REMARK  107  A    between atoms: _259  and  _260
REMARK  108  A    between atoms: _259  and  _262
REMARK  109  A    between atoms: _262  and  _263
REMARK  110  A    between atoms: _269  and  _271
REMARK  111  A    between atoms: _271  and  _272
REMARK  112  A    between atoms: _271  and  _274
REMARK  113  A    between atoms: _274  and  _275
REMARK  114  A    between atoms: _278  and  _280
REMARK  115  A    between atoms: _280  and  _281
REMARK  116  A    between atoms: _280  and  _283
REMARK  117  A    between atoms: _283  and  _284
REMARK  118  A    between atoms: _286  and  _288
REMARK  119  A    between atoms: _288  and  _289
REMARK  120  A    between atoms: _288  and  _291
REMARK  121  A    between atoms: _291  and  _292
REMARK  122  A    between atoms: _302  and  _304
REMARK  123  A    between atoms: _304  and  _305
REMARK  124  A    between atoms: _307  and  _309
REMARK  125  A    between atoms: _309  and  _310
REMARK  126  A    between atoms: _309  and  _312
REMARK  127  A    between atoms: _312  and  _313
REMARK  128  A    between atoms: _316  and  _318
REMARK  129  A    between atoms: _318  and  _319
REMARK  130  A    between atoms: _318  and  _321
REMARK  131  A    between atoms: _321  and  _322
REMARK  132  A    between atoms: _325  and  _327
REMARK  133  A    between atoms: _327  and  _328
REMARK  134  A    between atoms: _330  and  _332
REMARK  135  A    between atoms: _332  and  _333
REMARK  136  A    between atoms: _332  and  _335
REMARK  137  A    between atoms: _335  and  _336
REMARK  138  A    between atoms: _339  and  _341
REMARK  139  A    between atoms: _341  and  _342
REMARK  140  A    between atoms: _345  and  _347
REMARK  141  A    between atoms: _347  and  _348
REMARK  142  A    between atoms: _347  and  _350
REMARK  143  A    between atoms: _350  and  _351
REMARK  144  A    between atoms: _356  and  _357
REMARK  145  A    between atoms: _359  and  _361
REMARK  146  A    between atoms: _361  and  _362
REMARK  147  A    between atoms: _361  and  _364
REMARK  148  A    between atoms: _364  and  _365
REMARK  149  A    between atoms: _365  and  _366
REMARK  150  A    between atoms: _369  and  _371
REMARK  151  A    between atoms: _371  and  _372
REMARK  152  A    between atoms: _371  and  _374
REMARK  153  A    between atoms: _374  and  _375
REMARK  154  A    between atoms: _378  and  _380
REMARK  155  A    between atoms: _380  and  _381
REMARK  156  A    between atoms: _384  and  _386
REMARK  157  A    between atoms: _386  and  _387
REMARK  158  A    between atoms: _386  and  _389
REMARK  159  A    between atoms: _389  and  _390
REMARK  160  A    between atoms: _390  and  _391
REMARK  161  A    between atoms: _391  and  _392
REMARK  162  A    between atoms: _401  and  _403
REMARK  163  A    between atoms: _403  and  _404
REMARK  164  A    between atoms: _403  and  _406
REMARK  165  A    between atoms: _406  and  _407
REMARK  166  A    between atoms: _417  and  _419
REMARK  167  A    between atoms: _419  and  _420
REMARK  168  A    between atoms: _419  and  _422
REMARK  169  A    between atoms: _422  and  _423
REMARK  170  A    between atoms: _428  and  _429
REMARK  171  A    between atoms: _431  and  _433
REMARK  172  A    between atoms: _433  and  _434
REMARK  173  A    between atoms: _433  and  _436
REMARK  174  A    between atoms: _436  and  _437
REMARK  175  A    between atoms: _442  and  _443
REMARK  176  A    between atoms: _445  and  _447
REMARK  177  A    between atoms: _447  and  _448
REMARK  178  A    between atoms: _447  and  _450
REMARK  179  A    between atoms: _450  and  _451
REMARK  180  A    between atoms: _451  and  _452
REMARK  181  A    between atoms: _452  and  _453
REMARK  182  A    between atoms: _453  and  _454
REMARK  183  A    between atoms: _458  and  _460
REMARK  184  A    between atoms: _460  and  _461
REMARK  185  A    between atoms: _460  and  _463
REMARK  186  A    between atoms: _463  and  _464
REMARK  187  A    between atoms: _467  and  _469
REMARK  188  A    between atoms: _469  and  _470
REMARK  189  A    between atoms: _469  and  _472
REMARK  190  A    between atoms: _475  and  _477
REMARK  191  A    between atoms: _477  and  _478
REMARK  192  A    between atoms: _477  and  _480
REMARK  193  A    between atoms: _480  and  _481
REMARK  194  A    between atoms: _484  and  _486
REMARK  195  A    between atoms: _486  and  _487
REMARK  196  A    between atoms: _486  and  _489
REMARK  197  A    between atoms: _489  and  _490
REMARK  198  A    between atoms: _492  and  _494
REMARK  199  A    between atoms: _494  and  _495
REMARK  200  A    between atoms: _497  and  _499
REMARK  201  A    between atoms: _499  and  _500
REMARK  202  A    between atoms: _499  and  _502
REMARK  203  A    between atoms: _502  and  _503
REMARK  204  A    between atoms: _506  and  _508
REMARK  205  A    between atoms: _508  and  _509
REMARK  206  A    between atoms: _508  and  _511
REMARK  207  A    between atoms: _511  and  _512
REMARK  208  A    between atoms: _515  and  _517
REMARK  209  A    between atoms: _517  and  _518
REMARK  210  A    between atoms: _517  and  _520
REMARK  211  A    between atoms: _520  and  _521
REMARK  212  A    between atoms: _526  and  _528
REMARK  213  A    between atoms: _528  and  _529
REMARK  214  A    between atoms: _528  and  _531
REMARK  215  A    between atoms: _531  and  _532
REMARK  216  A    between atoms: _532  and  _533
REMARK  217  A    between atoms: _533  and  _534
REMARK  218  A    between atoms: _543  and  _545
REMARK  219  A    between atoms: _545  and  _546
REMARK  220  A    between atoms: _545  and  _548
REMARK  221  A    between atoms: _548  and  _549
REMARK  222  A    between atoms: _549  and  _550
REMARK  223  A    between atoms: _550  and  _551
REMARK  224  A    between atoms: _560  and  _562
REMARK  225  A    between atoms: _562  and  _563
REMARK  226  A    between atoms: _562  and  _565
REMARK  227  A    between atoms: _565  and  _566
REMARK  228  A    between atoms: _568  and  _570
REMARK  229  A    between atoms: _570  and  _571
REMARK  230  A    between atoms: _570  and  _573
REMARK  231  A    between atoms: _573  and  _574
REMARK  232  A    between atoms: _574  and  _575
REMARK  233  A    between atoms: _580  and  _582
REMARK  234  A    between atoms: _582  and  _583
REMARK  235  A    between atoms: _582  and  _585
REMARK  236  A    between atoms: _585  and  _586
REMARK  237  A    between atoms: _589  and  _591
REMARK  238  A    between atoms: _591  and  _592
REMARK  239  A    between atoms: _591  and  _594
REMARK  240  A    between atoms: _594  and  _595
REMARK  241  A    between atoms: _598  and  _600
REMARK  242  A    between atoms: _600  and  _601
REMARK  243  A    between atoms: _600  and  _603
REMARK  244  A    between atoms: _606  and  _608
REMARK  245  A    between atoms: _608  and  _609
REMARK  246  A    between atoms: _611  and  _613
REMARK  247  A    between atoms: _613  and  _614
REMARK  248  A    between atoms: _617  and  _619
REMARK  249  A    between atoms: _619  and  _620
REMARK  250  A    between atoms: _619  and  _622
REMARK                            x       y       z     vdW  Elec       q    Type
REMARK                         _______ _______ _______ _____ _____    ______ ____
ROOT
ATOM      1  CA  PHE A   3      23.617  13.821  14.550  0.00  0.00    +0.153 C 
ENDROOT
BRANCH   1   4
ATOM      2  C   LYS A   2      24.123  16.196  14.691  0.00  0.00    +0.241 C 
ATOM      3  O   LYS A   2      24.480  16.091  15.866  0.00  0.00    -0.273 OA
ATOM      4  N   PHE A   3      23.687  15.163  13.976  0.00  0.00    -0.297 N 
ATOM      5  H   PHE A   3      23.390  15.313  12.991  0.00  0.00    +0.150 HD
BRANCH   2   6
ATOM      6  CA  LYS A   2      24.162  17.550  13.989  0.00  0.00    +0.149 C 
BRANCH   6   9
ATOM      7  C   ASP A   1      21.858  17.561  13.164  0.00  0.00    +0.239 C 
ATOM      8  O   ASP A   1      21.395  17.291  14.268  0.00  0.00    -0.274 OA
ATOM      9  N   LYS A   2      23.160  17.697  12.934  0.00  0.00    -0.297 N 
ATOM     10  H   LYS A   2      23.478  17.916  11.968  0.00  0.00    +0.150 HD
BRANCH   7  11
ATOM     11  CA  ASP A   1      20.934  17.754  11.967  0.00  0.00    +0.156 C 
BRANCH  11  12
ATOM     12  N   ASP A   1      20.262  16.496  11.662  0.00  0.00    -0.238 NA
ATOM     13  H   ASP A   1      19.917  15.904  12.445  0.00  0.00    +0.142 HD
ENDBRANCH  11  12
BRANCH  11  14
ATOM     14  CB  ASP A   1      19.896  18.838  12.287  0.00  0.00    +0.140 C 
BRANCH  14  15
ATOM     15  CG  ASP A   1      20.530  20.184  12.611  0.00  0.00    +0.367 C 
ATOM     16  OD2 ASP A   1      19.830  21.051  13.169  0.00  0.00    -0.246 OA
ATOM     17  OD1 ASP A   1      21.723  20.380  12.304  0.00  0.00    -0.246 OA
ENDBRANCH  14  15
ENDBRANCH  11  14
ENDBRANCH   7  11
ENDBRANCH   6   9
BRANCH   6  18
ATOM     18  CB  LYS A   2      23.995  18.657  15.036  0.00  0.00    +0.029 C 
BRANCH  18  19
ATOM     19  CG  LYS A   2      24.176  20.066  14.501  0.00  0.00    +0.000 C 
BRANCH  19  20
ATOM     20  CD  LYS A   2      23.879  21.093  15.585  0.00  0.00    -0.024 C 
BRANCH  20  21
ATOM     21  CE  LYS A   2      23.954  22.510  15.042  0.00  0.00    -0.086 C 
BRANCH  21  22
ATOM     22  NZ  LYS A   2      23.706  23.522  16.110  0.00  0.00    +0.380 N 
ATOM     23  HZ1 LYS A   2      24.422  23.418  16.857  0.00  0.00    -0.089 HD
ATOM     24  HZ2 LYS A   2      22.759  23.374  16.513  0.00  0.00    -0.089 HD
ATOM     25  HZ3 LYS A   2      23.765  24.477  15.702  0.00  0.00    -0.089 HD
ENDBRANCH  21  22
ENDBRANCH  20  21
ENDBRANCH  19  20
ENDBRANCH  18  19
ENDBRANCH   6  18
ENDBRANCH   2   6
ENDBRANCH   1   4
BRANCH   1  26
ATOM     26  C   PHE A   3      24.885  13.065  14.185  0.00  0.00    +0.241 C 
ATOM     27  O   PHE A   3      25.686  12.710  15.055  0.00  0.00    -0.273 OA
ATOM     28  N   PHE A   4      25.069  12.820  12.891  0.00  0.00    -0.297 N 
ATOM     29  H   PHE A   4      24.361  13.142  12.200  0.00  0.00    +0.150 HD
BRANCH  28  30
ATOM     30  CA  PHE A   4      26.248  12.107  12.433  0.00  0.00    +0.153 C 
BRANCH  30  31
ATOM     31  C   PHE A   4      27.494  12.931  12.720  0.00  0.00    +0.241 C 
ATOM     32  N   ILE A   5      28.584  12.242  13.037  0.00  0.00    -0.298 N 
ATOM     33  H   ILE A   5      28.535  11.203  13.060  0.00  0.00    +0.150 HD
ATOM     34  O   PHE A   4      27.464  14.161  12.666  0.00  0.00    -0.273 OA
BRANCH  32  35
ATOM     35  CA  ILE A   5      29.848  12.897  13.354  0.00  0.00    +0.137 C 
BRANCH  35  36
ATOM     36  C   ILE A   5      30.899  12.589  12.293  0.00  0.00    +0.227 C 
ATOM     37  O   ILE A   5      31.157  11.429  11.972  0.00  0.00    -0.286 OA
ENDBRANCH  35  36
BRANCH  35  38
ATOM     38  CB  ILE A   5      30.371  12.427  14.737  0.00  0.00    +0.026 C 
ATOM     39  CG2 ILE A   5      31.722  13.071  15.035  0.00  0.00    +0.002 C 
BRANCH  38  40
ATOM     40  CG1 ILE A   5      29.346  12.774  15.822  0.00  0.00    +0.002 C 
ATOM     41  CD1 ILE A   5      29.677  12.212  17.199  0.00  0.00    +0.000 C 
ENDBRANCH  38  40
ENDBRANCH  35  38
ENDBRANCH  32  35
ENDBRANCH  30  31
BRANCH  30  42
ATOM     42  CB  PHE A   4      26.135  11.800  10.940  0.00  0.00    +0.055 C 
BRANCH  42  43
ATOM     43  CG  PHE A   4      24.994  10.879  10.607  0.00  0.00    -0.020 A 
ATOM     44  CD2 PHE A   4      24.977   9.581  11.095  0.00  0.00    -0.004 A 
ATOM     45  CE2 PHE A   4      23.900   8.738  10.843  0.00  0.00    -0.000 A 
ATOM     46  CZ  PHE A   4      22.828   9.192  10.095  0.00  0.00    -0.000 A 
ATOM     47  CE1 PHE A   4      22.835  10.489   9.597  0.00  0.00    -0.000 A 
ATOM     48  CD1 PHE A   4      23.918  11.325   9.856  0.00  0.00    -0.004 A 
ENDBRANCH  42  43
ENDBRANCH  30  42
ENDBRANCH  28  30
ENDBRANCH   1  26
BRANCH   1  49
ATOM     49  CB  PHE A   3      22.397  13.067  14.009  0.00  0.00    +0.055 C 
BRANCH  49  50
ATOM     50  CG  PHE A   3      22.248  11.671  14.560  0.00  0.00    -0.020 A 
ATOM     51  CD2 PHE A   3      21.965  11.467  15.899  0.00  0.00    -0.004 A 
ATOM     52  CE2 PHE A   3      21.837  10.180  16.411  0.00  0.00    -0.000 A 
ATOM     53  CZ  PHE A   3      21.992   9.085  15.579  0.00  0.00    -0.000 A 
ATOM     54  CE1 PHE A   3      22.275   9.276  14.237  0.00  0.00    -0.000 A 
ATOM     55  CD1 PHE A   3      22.401  10.564  13.735  0.00  0.00    -0.004 A 
ENDBRANCH  49  50
ENDBRANCH   1  49
TORSDOF 23
REMARK  Name = ../refined-set-2016/3lpi/3lpi_pocket.pdb
REMARK  250 active torsions:
REMARK  status: ('A' for Active; 'I' for Inactive)
REMARK    1  A    between atoms: _1  and  _3
REMARK    2  A    between atoms: _3  and  _4
REMARK    3  A    between atoms: _3  and  _6
REMARK    4  A    between atoms: _6  and  _7
REMARK    5  A    between atoms: _7  and  _8
REMARK    6  A    between atoms: _8  and  _9
REMARK    7  A    between atoms: _9  and  _10
REMARK    8  A    between atoms: _14  and  _16
REMARK    9  A    between atoms: _16  and  _17
REMARK   10  A    between atoms: _16  and  _19
REMARK   11  A    between atoms: _19  and  _20
REMARK   12  A    between atoms: _22  and  _24
REMARK   13  A    between atoms: _24  and  _25
REMARK   14  A    between atoms: _27  and  _29
REMARK   15  A    between atoms: _29  and  _30
REMARK   16  A    between atoms: _29  and  _32
REMARK   17  A    between atoms: _32  and  _33
REMARK   18  A    between atoms: _33  and  _34
REMARK   19  A    between atoms: _39  and  _41
REMARK   20  A    between atoms: _41  and  _42
REMARK   21  A    between atoms: _44  and  _46
REMARK   22  A    between atoms: _46  and  _47
REMARK   23  A    between atoms: _46  and  _49
REMARK   24  A    between atoms: _49  and  _50
REMARK   25  A    between atoms: _55  and  _56
REMARK   26  A    between atoms: _58  and  _60
REMARK   27  A    between atoms: _60  and  _61
REMARK   28  A    between atoms: _60  and  _63
REMARK   29  A    between atoms: _63  and  _64
REMARK   30  A    between atoms: _67  and  _69
REMARK   31  A    between atoms: _69  and  _70
REMARK   32  A    between atoms: _69  and  _72
REMARK   33  A    between atoms: _75  and  _77
REMARK   34  A    between atoms: _77  and  _78
REMARK   35  A    between atoms: _77  and  _80
REMARK   36  A    between atoms: _80  and  _81
REMARK   37  A    between atoms: _84  and  _86
REMARK   38  A    between atoms: _86  and  _87
REMARK   39  A    between atoms: _86  and  _89
REMARK   40  A    between atoms: _89  and  _90
REMARK   41  A    between atoms: _93  and  _95
REMARK   42  A    between atoms: _95  and  _96
REMARK   43  A    between atoms: _98  and  _100
REMARK   44  A    between atoms: _100  and  _101
REMARK   45  A    between atoms: _100  and  _103
REMARK   46  A    between atoms: _103  and  _104
REMARK   47  A    between atoms: _106  and  _108
REMARK   48  A    between atoms: _108  and  _109
REMARK   49  A    between atoms: _108  and  _111
REMARK   50  A    between atoms: _111  and  _112
REMARK   51  A    between atoms: _114  and  _116
REMARK   52  A    between atoms: _116  and  _117
REMARK   53  A    between atoms: _116  and  _119
REMARK   54  A    between atoms: _119  and  _120
REMARK   55  A    between atoms: _125  and  _127
REMARK   56  A    between atoms: _127  and  _128
REMARK   57  A    between atoms: _127  and  _130
REMARK   58  A    between atoms: _130  and  _131
REMARK   59  A    between atoms: _136  and  _137
REMARK   60  A    between atoms: _139  and  _141
REMARK   61  A    between atoms: _141  and  _142
REMARK   62  A    between atoms: _141  and  _144
REMARK   63  A    between atoms: _148  and  _149
REMARK   64  A    between atoms: _154  and  _156
REMARK   65  A    between atoms: _156  and  _157
REMARK   66  A    between atoms: _156  and  _159
REMARK   67  A    between atoms: _159  and  _160
REMARK   68  A    between atoms: _165  and  _166
REMARK   69  A    between atoms: _168  and  _170
REMARK   70  A    between atoms: _170  and  _171
REMARK   71  A    between atoms: _170  and  _173
REMARK   72  A    between atoms: _173  and  _174
REMARK   73  A    between atoms: _177  and  _179
REMARK   74  A    between atoms: _179  and  _180
REMARK   75  A    between atoms: _179  and  _182
REMARK   76  A    between atoms: _182  and  _183
REMARK   77  A    between atoms: _183  and  _184
REMARK   78  A    between atoms: _189  and  _191
REMARK   79  A    between atoms: _191  and  _192
REMARK   80  A    between atoms: _194  and  _196
REMARK   81  A    between atoms: _196  and  _197
REMARK   82  A    between atoms: _196  and  _199
REMARK   83  A    between atoms: _199  and  _200
REMARK   84  A    between atoms: _200  and  _201
REMARK   85  A    between atoms: _201  and  _202
REMARK   86  A    between atoms: _202  and  _203
REMARK   87  A    between atoms: _207  and  _209
REMARK   88  A    between atoms: _209  and  _210
REMARK   89  A    between atoms: _209  and  _212
REMARK   90  A    between atoms: _212  and  _213
REMARK   91  A    between atoms: _223  and  _225
REMARK   92  A    between atoms: _225  and  _226
REMARK   93  A    between atoms: _225  and  _228
REMARK   94  A    between atoms: _228  and  _229
REMARK   95  A    between atoms: _232  and  _234
REMARK   96  A    between atoms: _234  and  _235
REMARK   97  A    between atoms: _234  and  _237
REMARK   98  A    between atoms: _237  and  _238
REMARK   99  A    between atoms: _238  and  _239
REMARK  100  A    between atoms: _239  and  _240
REMARK  101  A    between atoms: _240  and  _241
REMARK  102  A    between atoms: _245  and  _247
REMARK  103  A    between atoms: _247  and  _248
REMARK  104  A    between atoms: _247  and  _250
REMARK  105  A    between atoms: _250  and  _251
REMARK  106  A    between atoms: _257  and  _259
REMARK  107  A    between atoms: _259  and  _260
REMARK  108  A    between atoms: _259  and  _262
REMARK  109  A    between atoms: _262  and  _263
REMARK  110  A    between atoms: _269  and  _271
REMARK  111  A    between atoms: _271  and  _272
REMARK  112  A    between atoms: _271  and  _274
REMARK  113  A    between atoms: _274  and  _275
REMARK  114  A    between atoms: _278  and  _280
REMARK  115  A    between atoms: _280  and  _281
REMARK  116  A    between atoms: _280  and  _283
REMARK  117  A    between atoms: _283  and  _284
REMARK  118  A    between atoms: _286  and  _288
REMARK  119  A    between atoms: _288  and  _289
REMARK  120  A    between atoms: _288  and  _291
REMARK  121  A    between atoms: _291  and  _292
REMARK  122  A    between atoms: _302  and  _304
REMARK  123  A    between atoms: _304  and  _305
REMARK  124  A    between atoms: _307  and  _309
REMARK  125  A    between atoms: _309  and  _310
REMARK  126  A    between atoms: _309  and  _312
REMARK  127  A    between atoms: _312  and  _313
REMARK  128  A    between atoms: _316  and  _318
REMARK  129  A    between atoms: _318  and  _319
REMARK  130  A    between atoms: _318  and  _321
REMARK  131  A    between atoms: _321  and  _322
REMARK  132  A    between atoms: _325  and  _327
REMARK  133  A    between atoms: _327  and  _328
REMARK  134  A    between atoms: _330  and  _332
REMARK  135  A    between atoms: _332  and  _333
REMARK  136  A    between atoms: _332  and  _335
REMARK  137  A    between atoms: _335  and  _336
REMARK  138  A    between atoms: _339  and  _341
REMARK  139  A    between atoms: _341  and  _342
REMARK  140  A    between atoms: _345  and  _347
REMARK  141  A    between atoms: _347  and  _348
REMARK  142  A    between atoms: _347  and  _350
REMARK  143  A    between atoms: _350  and  _351
REMARK  144  A    between atoms: _356  and  _357
REMARK  145  A    between atoms: _359  and  _361
REMARK  146  A    between atoms: _361  and  _362
REMARK  147  A    between atoms: _361  and  _364
REMARK  148  A    between atoms: _364  and  _365
REMARK  149  A    between atoms: _365  and  _366
REMARK  150  A    between atoms: _369  and  _371
REMARK  151  A    between atoms: _371  and  _372
REMARK  152  A    between atoms: _371  and  _374
REMARK  153  A    between atoms: _374  and  _375
REMARK  154  A    between atoms: _378  and  _380
REMARK  155  A    between atoms: _380  and  _381
REMARK  156  A    between atoms: _384  and  _386
REMARK  157  A    between atoms: _386  and  _387
REMARK  158  A    between atoms: _386  and  _389
REMARK  159  A    between atoms: _389  and  _390
REMARK  160  A    between atoms: _390  and  _391
REMARK  161  A    between atoms: _391  and  _392
REMARK  162  A    between atoms: _401  and  _403
REMARK  163  A    between atoms: _403  and  _404
REMARK  164  A    between atoms: _403  and  _406
REMARK  165  A    between atoms: _406  and  _407
REMARK  166  A    between atoms: _417  and  _419
REMARK  167  A    between atoms: _419  and  _420
REMARK  168  A    between atoms: _419  and  _422
REMARK  169  A    between atoms: _422  and  _423
REMARK  170  A    between atoms: _428  and  _429
REMARK  171  A    between atoms: _431  and  _433
REMARK  172  A    between atoms: _433  and  _434
REMARK  173  A    between atoms: _433  and  _436
REMARK  174  A    between atoms: _436  and  _437
REMARK  175  A    between atoms: _442  and  _443
REMARK  176  A    between atoms: _445  and  _447
REMARK  177  A    between atoms: _447  and  _448
REMARK  178  A    between atoms: _447  and  _450
REMARK  179  A    between atoms: _450  and  _451
REMARK  180  A    between atoms: _451  and  _452
REMARK  181  A    between atoms: _452  and  _453
REMARK  182  A    between atoms: _453  and  _454
REMARK  183  A    between atoms: _458  and  _460
REMARK  184  A    between atoms: _460  and  _461
REMARK  185  A    between atoms: _460  and  _463
REMARK  186  A    between atoms: _463  and  _464
REMARK  187  A    between atoms: _467  and  _469
REMARK  188  A    between atoms: _469  and  _470
REMARK  189  A    between atoms: _469  and  _472
REMARK  190  A    between atoms: _475  and  _477
REMARK  191  A    between atoms: _477  and  _478
REMARK  192  A    between atoms: _477  and  _480
REMARK  193  A    between atoms: _480  and  _481
REMARK  194  A    between atoms: _484  and  _486
REMARK  195  A    between atoms: _486  and  _487
REMARK  196  A    between atoms: _486  and  _489
REMARK  197  A    between atoms: _489  and  _490
REMARK  198  A    between atoms: _492  and  _494
REMARK  199  A    between atoms: _494  and  _495
REMARK  200  A    between atoms: _497  and  _499
REMARK  201  A    between atoms: _499  and  _500
REMARK  202  A    between atoms: _499  and  _502
REMARK  203  A    between atoms: _502  and  _503
REMARK  204  A    between atoms: _506  and  _508
REMARK  205  A    between atoms: _508  and  _509
REMARK  206  A    between atoms: _508  and  _511
REMARK  207  A    between atoms: _511  and  _512
REMARK  208  A    between atoms: _515  and  _517
REMARK  209  A    between atoms: _517  and  _518
REMARK  210  A    between atoms: _517  and  _520
REMARK  211  A    between atoms: _520  and  _521
REMARK  212  A    between atoms: _526  and  _528
REMARK  213  A    between atoms: _528  and  _529
REMARK  214  A    between atoms: _528  and  _531
REMARK  215  A    between atoms: _531  and  _532
REMARK  216  A    between atoms: _532  and  _533
REMARK  217  A    between atoms: _533  and  _534
REMARK  218  A    between atoms: _543  and  _545
REMARK  219  A    between atoms: _545  and  _546
REMARK  220  A    between atoms: _545  and  _548
REMARK  221  A    between atoms: _548  and  _549
REMARK  222  A    between atoms: _549  and  _550
REMARK  223  A    between atoms: _550  and  _551
REMARK  224  A    between atoms: _560  and  _562
REMARK  225  A    between atoms: _562  and  _563
REMARK  226  A    between atoms: _562  and  _565
REMARK  227  A    between atoms: _565  and  _566
REMARK  228  A    between atoms: _568  and  _570
REMARK  229  A    between atoms: _570  and  _571
REMARK  230  A    between atoms: _570  and  _573
REMARK  231  A    between atoms: _573  and  _574
REMARK  232  A    between atoms: _574  and  _575
REMARK  233  A    between atoms: _580  and  _582
REMARK  234  A    between atoms: _582  and  _583
REMARK  235  A    between atoms: _582  and  _585
REMARK  236  A    between atoms: _585  and  _586
REMARK  237  A    between atoms: _589  and  _591
REMARK  238  A    between atoms: _591  and  _592
REMARK  239  A    between atoms: _591  and  _594
REMARK  240  A    between atoms: _594  and  _595
REMARK  241  A    between atoms: _598  and  _600
REMARK  242  A    between atoms: _600  and  _601
REMARK  243  A    between atoms: _600  and  _603
REMARK  244  A    between atoms: _606  and  _608
REMARK  245  A    between atoms: _608  and  _609
REMARK  246  A    between atoms: _611  and  _613
REMARK  247  A    between atoms: _613  and  _614
REMARK  248  A    between atoms: _617  and  _619
REMARK  249  A    between atoms: _619  and  _620
REMARK  250  A    between atoms: _619  and  _622
REMARK                            x       y       z     vdW  Elec       q    Type
REMARK                         _______ _______ _______ _____ _____    ______ ____
ROOT
ATOM      1  CA  SER A   1      33.362   8.690  13.660  0.00  0.00    +0.163 C 
ENDROOT
BRANCH   1   2
ATOM      2  N   SER A   1      33.687   9.632  12.581  0.00  0.00    -0.237 NA
ATOM      3  H   SER A   1      32.938  10.249  12.206  0.00  0.00    +0.142 HD
ENDBRANCH   1   2
BRANCH   1   4
ATOM      4  CB  SER A   1      33.366   7.243  13.166  0.00  0.00    +0.227 C 
ATOM      5  OG  SER A   1      33.607   6.303  13.928  0.00  0.00    -0.287 OA
ENDBRANCH   1   4
BRANCH   1   6
ATOM      6  C   SER A   1      31.980   9.000  14.225  0.00  0.00    +0.162 C 
BRANCH   6   7
ATOM      7  O   SER A   1      30.984   8.644  13.278  0.00  0.00    -0.380 OA
ATOM      8  H   SER A   1      30.089   8.847  13.650  0.00  0.00    +0.211 HD
ENDBRANCH   6   7
ENDBRANCH   1   6
TORSDOF 4
REMARK  Name = ../refined-set-2016/3lpi/3lpi_pocket.pdb
REMARK  250 active torsions:
REMARK  status: ('A' for Active; 'I' for Inactive)
REMARK    1  A    between atoms: _1  and  _3
REMARK    2  A    between atoms: _3  and  _4
REMARK    3  A    between atoms: _3  and  _6
REMARK    4  A    between atoms: _6  and  _7
REMARK    5  A    between atoms: _7  and  _8
REMARK    6  A    between atoms: _8  and  _9
REMARK    7  A    between atoms: _9  and  _10
REMARK    8  A    between atoms: _14  and  _16
REMARK    9  A    between atoms: _16  and  _17
REMARK   10  A    between atoms: _16  and  _19
REMARK   11  A    between atoms: _19  and  _20
REMARK   12  A    between atoms: _22  and  _24
REMARK   13  A    between atoms: _24  and  _25
REMARK   14  A    between atoms: _27  and  _29
REMARK   15  A    between atoms: _29  and  _30
REMARK   16  A    between atoms: _29  and  _32
REMARK   17  A    between atoms: _32  and  _33
REMARK   18  A    between atoms: _33  and  _34
REMARK   19  A    between atoms: _39  and  _41
REMARK   20  A    between atoms: _41  and  _42
REMARK   21  A    between atoms: _44  and  _46
REMARK   22  A    between atoms: _46  and  _47
REMARK   23  A    between atoms: _46  and  _49
REMARK   24  A    between atoms: _49  and  _50
REMARK   25  A    between atoms: _55  and  _56
REMARK   26  A    between atoms: _58  and  _60
REMARK   27  A    between atoms: _60  and  _61
REMARK   28  A    between atoms: _60  and  _63
REMARK   29  A    between atoms: _63  and  _64
REMARK   30  A    between atoms: _67  and  _69
REMARK   31  A    between atoms: _69  and  _70
REMARK   32  A    between atoms: _69  and  _72
REMARK   33  A    between atoms: _75  and  _77
REMARK   34  A    between atoms: _77  and  _78
REMARK   35  A    between atoms: _77  and  _80
REMARK   36  A    between atoms: _80  and  _81
REMARK   37  A    between atoms: _84  and  _86
REMARK   38  A    between atoms: _86  and  _87
REMARK   39  A    between atoms: _86  and  _89
REMARK   40  A    between atoms: _89  and  _90
REMARK   41  A    between atoms: _93  and  _95
REMARK   42  A    between atoms: _95  and  _96
REMARK   43  A    between atoms: _98  and  _100
REMARK   44  A    between atoms: _100  and  _101
REMARK   45  A    between atoms: _100  and  _103
REMARK   46  A    between atoms: _103  and  _104
REMARK   47  A    between atoms: _106  and  _108
REMARK   48  A    between atoms: _108  and  _109
REMARK   49  A    between atoms: _108  and  _111
REMARK   50  A    between atoms: _111  and  _112
REMARK   51  A    between atoms: _114  and  _116
REMARK   52  A    between atoms: _116  and  _117
REMARK   53  A    between atoms: _116  and  _119
REMARK   54  A    between atoms: _119  and  _120
REMARK   55  A    between atoms: _125  and  _127
REMARK   56  A    between atoms: _127  and  _128
REMARK   57  A    between atoms: _127  and  _130
REMARK   58  A    between atoms: _130  and  _131
REMARK   59  A    between atoms: _136  and  _137
REMARK   60  A    between atoms: _139  and  _141
REMARK   61  A    between atoms: _141  and  _142
REMARK   62  A    between atoms: _141  and  _144
REMARK   63  A    between atoms: _148  and  _149
REMARK   64  A    between atoms: _154  and  _156
REMARK   65  A    between atoms: _156  and  _157
REMARK   66  A    between atoms: _156  and  _159
REMARK   67  A    between atoms: _159  and  _160
REMARK   68  A    between atoms: _165  and  _166
REMARK   69  A    between atoms: _168  and  _170
REMARK   70  A    between atoms: _170  and  _171
REMARK   71  A    between atoms: _170  and  _173
REMARK   72  A    between atoms: _173  and  _174
REMARK   73  A    between atoms: _177  and  _179
REMARK   74  A    between atoms: _179  and  _180
REMARK   75  A    between atoms: _179  and  _182
REMARK   76  A    between atoms: _182  and  _183
REMARK   77  A    between atoms: _183  and  _184
REMARK   78  A    between atoms: _189  and  _191
REMARK   79  A    between atoms: _191  and  _192
REMARK   80  A    between atoms: _194  and  _196
REMARK   81  A    between atoms: _196  and  _197
REMARK   82  A    between atoms: _196  and  _199
REMARK   83  A    between atoms: _199  and  _200
REMARK   84  A    between atoms: _200  and  _201
REMARK   85  A    between atoms: _201  and  _202
REMARK   86  A    between atoms: _202  and  _203
REMARK   87  A    between atoms: _207  and  _209
REMARK   88  A    between atoms: _209  and  _210
REMARK   89  A    between atoms: _209  and  _212
REMARK   90  A    between atoms: _212  and  _213
REMARK   91  A    between atoms: _223  and  _225
REMARK   92  A    between atoms: _225  and  _226
REMARK   93  A    between atoms: _225  and  _228
REMARK   94  A    between atoms: _228  and  _229
REMARK   95  A    between atoms: _232  and  _234
REMARK   96  A    between atoms: _234  and  _235
REMARK   97  A    between atoms: _234  and  _237
REMARK   98  A    between atoms: _237  and  _238
REMARK   99  A    between atoms: _238  and  _239
REMARK  100  A    between atoms: _239  and  _240
REMARK  101  A    between atoms: _240  and  _241
REMARK  102  A    between atoms: _245  and  _247
REMARK  103  A    between atoms: _247  and  _248
REMARK  104  A    between atoms: _247  and  _250
REMARK  105  A    between atoms: _250  and  _251
REMARK  106  A    between atoms: _257  and  _259
REMARK  107  A    between atoms: _259  and  _260
REMARK  108  A    between atoms: _259  and  _262
REMARK  109  A    between atoms: _262  and  _263
REMARK  110  A    between atoms: _269  and  _271
REMARK  111  A    between atoms: _271  and  _272
REMARK  112  A    between atoms: _271  and  _274
REMARK  113  A    between atoms: _274  and  _275
REMARK  114  A    between atoms: _278  and  _280
REMARK  115  A    between atoms: _280  and  _281
REMARK  116  A    between atoms: _280  and  _283
REMARK  117  A    between atoms: _283  and  _284
REMARK  118  A    between atoms: _286  and  _288
REMARK  119  A    between atoms: _288  and  _289
REMARK  120  A    between atoms: _288  and  _291
REMARK  121  A    between atoms: _291  and  _292
REMARK  122  A    between atoms: _302  and  _304
REMARK  123  A    between atoms: _304  and  _305
REMARK  124  A    between atoms: _307  and  _309
REMARK  125  A    between atoms: _309  and  _310
REMARK  126  A    between atoms: _309  and  _312
REMARK  127  A    between atoms: _312  and  _313
REMARK  128  A    between atoms: _316  and  _318
REMARK  129  A    between atoms: _318  and  _319
REMARK  130  A    between atoms: _318  and  _321
REMARK  131  A    between atoms: _321  and  _322
REMARK  132  A    between atoms: _325  and  _327
REMARK  133  A    between atoms: _327  and  _328
REMARK  134  A    between atoms: _330  and  _332
REMARK  135  A    between atoms: _332  and  _333
REMARK  136  A    between atoms: _332  and  _335
REMARK  137  A    between atoms: _335  and  _336
REMARK  138  A    between atoms: _339  and  _341
REMARK  139  A    between atoms: _341  and  _342
REMARK  140  A    between atoms: _345  and  _347
REMARK  141  A    between atoms: _347  and  _348
REMARK  142  A    between atoms: _347  and  _350
REMARK  143  A    between atoms: _350  and  _351
REMARK  144  A    between atoms: _356  and  _357
REMARK  145  A    between atoms: _359  and  _361
REMARK  146  A    between atoms: _361  and  _362
REMARK  147  A    between atoms: _361  and  _364
REMARK  148  A    between atoms: _364  and  _365
REMARK  149  A    between atoms: _365  and  _366
REMARK  150  A    between atoms: _369  and  _371
REMARK  151  A    between atoms: _371  and  _372
REMARK  152  A    between atoms: _371  and  _374
REMARK  153  A    between atoms: _374  and  _375
REMARK  154  A    between atoms: _378  and  _380
REMARK  155  A    between atoms: _380  and  _381
REMARK  156  A    between atoms: _384  and  _386
REMARK  157  A    between atoms: _386  and  _387
REMARK  158  A    between atoms: _386  and  _389
REMARK  159  A    between atoms: _389  and  _390
REMARK  160  A    between atoms: _390  and  _391
REMARK  161  A    between atoms: _391  and  _392
REMARK  162  A    between atoms: _401  and  _403
REMARK  163  A    between atoms: _403  and  _404
REMARK  164  A    between atoms: _403  and  _406
REMARK  165  A    between atoms: _406  and  _407
REMARK  166  A    between atoms: _417  and  _419
REMARK  167  A    between atoms: _419  and  _420
REMARK  168  A    between atoms: _419  and  _422
REMARK  169  A    between atoms: _422  and  _423
REMARK  170  A    between atoms: _428  and  _429
REMARK  171  A    between atoms: _431  and  _433
REMARK  172  A    between atoms: _433  and  _434
REMARK  173  A    between atoms: _433  and  _436
REMARK  174  A    between atoms: _436  and  _437
REMARK  175  A    between atoms: _442  and  _443
REMARK  176  A    between atoms: _445  and  _447
REMARK  177  A    between atoms: _447  and  _448
REMARK  178  A    between atoms: _447  and  _450
REMARK  179  A    between atoms: _450  and  _451
REMARK  180  A    between atoms: _451  and  _452
REMARK  181  A    between atoms: _452  and  _453
REMARK  182  A    between atoms: _453  and  _454
REMARK  183  A    between atoms: _458  and  _460
REMARK  184  A    between atoms: _460  and  _461
REMARK  185  A    between atoms: _460  and  _463
REMARK  186  A    between atoms: _463  and  _464
REMARK  187  A    between atoms: _467  and  _469
REMARK  188  A    between atoms: _469  and  _470
REMARK  189  A    between atoms: _469  and  _472
REMARK  190  A    between atoms: _475  and  _477
REMARK  191  A    between atoms: _477  and  _478
REMARK  192  A    between atoms: _477  and  _480
REMARK  193  A    between atoms: _480  and  _481
REMARK  194  A    between atoms: _484  and  _486
REMARK  195  A    between atoms: _486  and  _487
REMARK  196  A    between atoms: _486  and  _489
REMARK  197  A    between atoms: _489  and  _490
REMARK  198  A    between atoms: _492  and  _494
REMARK  199  A    between atoms: _494  and  _495
REMARK  200  A    between atoms: _497  and  _499
REMARK  201  A    between atoms: _499  and  _500
REMARK  202  A    between atoms: _499  and  _502
REMARK  203  A    between atoms: _502  and  _503
REMARK  204  A    between atoms: _506  and  _508
REMARK  205  A    between atoms: _508  and  _509
REMARK  206  A    between atoms: _508  and  _511
REMARK  207  A    between atoms: _511  and  _512
REMARK  208  A    between atoms: _515  and  _517
REMARK  209  A    between atoms: _517  and  _518
REMARK  210  A    between atoms: _517  and  _520
REMARK  211  A    between atoms: _520  and  _521
REMARK  212  A    between atoms: _526  and  _528
REMARK  213  A    between atoms: _528  and  _529
REMARK  214  A    between atoms: _528  and  _531
REMARK  215  A    between atoms: _531  and  _532
REMARK  216  A    between atoms: _532  and  _533
REMARK  217  A    between atoms: _533  and  _534
REMARK  218  A    between atoms: _543  and  _545
REMARK  219  A    between atoms: _545  and  _546
REMARK  220  A    between atoms: _545  and  _548
REMARK  221  A    between atoms: _548  and  _549
REMARK  222  A    between atoms: _549  and  _550
REMARK  223  A    between atoms: _550  and  _551
REMARK  224  A    between atoms: _560  and  _562
REMARK  225  A    between atoms: _562  and  _563
REMARK  226  A    between atoms: _562  and  _565
REMARK  227  A    between atoms: _565  and  _566
REMARK  228  A    between atoms: _568  and  _570
REMARK  229  A    between atoms: _570  and  _571
REMARK  230  A    between atoms: _570  and  _573
REMARK  231  A    between atoms: _573  and  _574
REMARK  232  A    between atoms: _574  and  _575
REMARK  233  A    between atoms: _580  and  _582
REMARK  234  A    between atoms: _582  and  _583
REMARK  235  A    between atoms: _582  and  _585
REMARK  236  A    between atoms: _585  and  _586
REMARK  237  A    between atoms: _589  and  _591
REMARK  238  A    between atoms: _591  and  _592
REMARK  239  A    between atoms: _591  and  _594
REMARK  240  A    between atoms: _594  and  _595
REMARK  241  A    between atoms: _598  and  _600
REMARK  242  A    between atoms: _600  and  _601
REMARK  243  A    between atoms: _600  and  _603
REMARK  244  A    between atoms: _606  and  _608
REMARK  245  A    between atoms: _608  and  _609
REMARK  246  A    between atoms: _611  and  _613
REMARK  247  A    between atoms: _613  and  _614
REMARK  248  A    between atoms: _617  and  _619
REMARK  249  A    between atoms: _619  and  _620
REMARK  250  A    between atoms: _619  and  _622
REMARK                            x       y       z     vdW  Elec       q    Type
REMARK                         _______ _______ _______ _____ _____    ______ ____
ROOT
ATOM      1  CG  TRP A   1      29.113   6.002  14.769  0.00  0.00    -0.002 A 
ATOM      2  CD1 TRP A   1      30.110   6.398  15.614  0.00  0.00    +0.068 A 
ATOM      3  NE1 TRP A   1      29.733   7.530  16.294  0.00  0.00    -0.352 N 
ATOM      4  HE1 TRP A   1      30.309   8.030  17.001  0.00  0.00    +0.166 HD
ATOM      5  CE2 TRP A   1      28.475   7.895  15.890  0.00  0.00    +0.056 A 
ATOM      6  CZ2 TRP A   1      27.674   8.973  16.292  0.00  0.00    +0.017 A 
ATOM      7  CH2 TRP A   1      26.439   9.095  15.712  0.00  0.00    +0.001 A 
ATOM      8  CZ3 TRP A   1      25.991   8.177  14.750  0.00  0.00    +0.000 A 
ATOM      9  CE3 TRP A   1      26.786   7.108  14.351  0.00  0.00    +0.001 A 
ATOM     10  CD2 TRP A   1      28.052   6.957  14.927  0.00  0.00    +0.013 A 
ENDROOT
BRANCH   1  11
ATOM     11  CB  TRP A   1      29.092   4.749  13.930  0.00  0.00    +0.053 C 
BRANCH  11  12
ATOM     12  CA  TRP A   1      29.505   4.837  12.443  0.00  0.00    +0.137 C 
BRANCH  12  13
ATOM     13  N   TRP A   1      30.759   5.556  12.213  0.00  0.00    -0.239 NA
ATOM     14  H   TRP A   1      30.879   6.526  12.569  0.00  0.00    +0.142 HD
ENDBRANCH  12  13
BRANCH  12  15
ATOM     15  C   TRP A   1      28.399   5.470  11.610  0.00  0.00    +0.224 C 
ATOM     16  O   TRP A   1      28.428   6.669  11.315  0.00  0.00    -0.287 OA
ENDBRANCH  12  15
ENDBRANCH  11  12
ENDBRANCH   1  11
TORSDOF 4
REMARK  Name = ../refined-set-2016/3lpi/3lpi_pocket.pdb
REMARK  250 active torsions:
REMARK  status: ('A' for Active; 'I' for Inactive)
REMARK    1  A    between atoms: _1  and  _3
REMARK    2  A    between atoms: _3  and  _4
REMARK    3  A    between atoms: _3  and  _6
REMARK    4  A    between atoms: _6  and  _7
REMARK    5  A    between atoms: _7  and  _8
REMARK    6  A    between atoms: _8  and  _9
REMARK    7  A    between atoms: _9  and  _10
REMARK    8  A    between atoms: _14  and  _16
REMARK    9  A    between atoms: _16  and  _17
REMARK   10  A    between atoms: _16  and  _19
REMARK   11  A    between atoms: _19  and  _20
REMARK   12  A    between atoms: _22  and  _24
REMARK   13  A    between atoms: _24  and  _25
REMARK   14  A    between atoms: _27  and  _29
REMARK   15  A    between atoms: _29  and  _30
REMARK   16  A    between atoms: _29  and  _32
REMARK   17  A    between atoms: _32  and  _33
REMARK   18  A    between atoms: _33  and  _34
REMARK   19  A    between atoms: _39  and  _41
REMARK   20  A    between atoms: _41  and  _42
REMARK   21  A    between atoms: _44  and  _46
REMARK   22  A    between atoms: _46  and  _47
REMARK   23  A    between atoms: _46  and  _49
REMARK   24  A    between atoms: _49  and  _50
REMARK   25  A    between atoms: _55  and  _56
REMARK   26  A    between atoms: _58  and  _60
REMARK   27  A    between atoms: _60  and  _61
REMARK   28  A    between atoms: _60  and  _63
REMARK   29  A    between atoms: _63  and  _64
REMARK   30  A    between atoms: _67  and  _69
REMARK   31  A    between atoms: _69  and  _70
REMARK   32  A    between atoms: _69  and  _72
REMARK   33  A    between atoms: _75  and  _77
REMARK   34  A    between atoms: _77  and  _78
REMARK   35  A    between atoms: _77  and  _80
REMARK   36  A    between atoms: _80  and  _81
REMARK   37  A    between atoms: _84  and  _86
REMARK   38  A    between atoms: _86  and  _87
REMARK   39  A    between atoms: _86  and  _89
REMARK   40  A    between atoms: _89  and  _90
REMARK   41  A    between atoms: _93  and  _95
REMARK   42  A    between atoms: _95  and  _96
REMARK   43  A    between atoms: _98  and  _100
REMARK   44  A    between atoms: _100  and  _101
REMARK   45  A    between atoms: _100  and  _103
REMARK   46  A    between atoms: _103  and  _104
REMARK   47  A    between atoms: _106  and  _108
REMARK   48  A    between atoms: _108  and  _109
REMARK   49  A    between atoms: _108  and  _111
REMARK   50  A    between atoms: _111  and  _112
REMARK   51  A    between atoms: _114  and  _116
REMARK   52  A    between atoms: _116  and  _117
REMARK   53  A    between atoms: _116  and  _119
REMARK   54  A    between atoms: _119  and  _120
REMARK   55  A    between atoms: _125  and  _127
REMARK   56  A    between atoms: _127  and  _128
REMARK   57  A    between atoms: _127  and  _130
REMARK   58  A    between atoms: _130  and  _131
REMARK   59  A    between atoms: _136  and  _137
REMARK   60  A    between atoms: _139  and  _141
REMARK   61  A    between atoms: _141  and  _142
REMARK   62  A    between atoms: _141  and  _144
REMARK   63  A    between atoms: _148  and  _149
REMARK   64  A    between atoms: _154  and  _156
REMARK   65  A    between atoms: _156  and  _157
REMARK   66  A    between atoms: _156  and  _159
REMARK   67  A    between atoms: _159  and  _160
REMARK   68  A    between atoms: _165  and  _166
REMARK   69  A    between atoms: _168  and  _170
REMARK   70  A    between atoms: _170  and  _171
REMARK   71  A    between atoms: _170  and  _173
REMARK   72  A    between atoms: _173  and  _174
REMARK   73  A    between atoms: _177  and  _179
REMARK   74  A    between atoms: _179  and  _180
REMARK   75  A    between atoms: _179  and  _182
REMARK   76  A    between atoms: _182  and  _183
REMARK   77  A    between atoms: _183  and  _184
REMARK   78  A    between atoms: _189  and  _191
REMARK   79  A    between atoms: _191  and  _192
REMARK   80  A    between atoms: _194  and  _196
REMARK   81  A    between atoms: _196  and  _197
REMARK   82  A    between atoms: _196  and  _199
REMARK   83  A    between atoms: _199  and  _200
REMARK   84  A    between atoms: _200  and  _201
REMARK   85  A    between atoms: _201  and  _202
REMARK   86  A    between atoms: _202  and  _203
REMARK   87  A    between atoms: _207  and  _209
REMARK   88  A    between atoms: _209  and  _210
REMARK   89  A    between atoms: _209  and  _212
REMARK   90  A    between atoms: _212  and  _213
REMARK   91  A    between atoms: _223  and  _225
REMARK   92  A    between atoms: _225  and  _226
REMARK   93  A    between atoms: _225  and  _228
REMARK   94  A    between atoms: _228  and  _229
REMARK   95  A    between atoms: _232  and  _234
REMARK   96  A    between atoms: _234  and  _235
REMARK   97  A    between atoms: _234  and  _237
REMARK   98  A    between atoms: _237  and  _238
REMARK   99  A    between atoms: _238  and  _239
REMARK  100  A    between atoms: _239  and  _240
REMARK  101  A    between atoms: _240  and  _241
REMARK  102  A    between atoms: _245  and  _247
REMARK  103  A    between atoms: _247  and  _248
REMARK  104  A    between atoms: _247  and  _250
REMARK  105  A    between atoms: _250  and  _251
REMARK  106  A    between atoms: _257  and  _259
REMARK  107  A    between atoms: _259  and  _260
REMARK  108  A    between atoms: _259  and  _262
REMARK  109  A    between atoms: _262  and  _263
REMARK  110  A    between atoms: _269  and  _271
REMARK  111  A    between atoms: _271  and  _272
REMARK  112  A    between atoms: _271  and  _274
REMARK  113  A    between atoms: _274  and  _275
REMARK  114  A    between atoms: _278  and  _280
REMARK  115  A    between atoms: _280  and  _281
REMARK  116  A    between atoms: _280  and  _283
REMARK  117  A    between atoms: _283  and  _284
REMARK  118  A    between atoms: _286  and  _288
REMARK  119  A    between atoms: _288  and  _289
REMARK  120  A    between atoms: _288  and  _291
REMARK  121  A    between atoms: _291  and  _292
REMARK  122  A    between atoms: _302  and  _304
REMARK  123  A    between atoms: _304  and  _305
REMARK  124  A    between atoms: _307  and  _309
REMARK  125  A    between atoms: _309  and  _310
REMARK  126  A    between atoms: _309  and  _312
REMARK  127  A    between atoms: _312  and  _313
REMARK  128  A    between atoms: _316  and  _318
REMARK  129  A    between atoms: _318  and  _319
REMARK  130  A    between atoms: _318  and  _321
REMARK  131  A    between atoms: _321  and  _322
REMARK  132  A    between atoms: _325  and  _327
REMARK  133  A    between atoms: _327  and  _328
REMARK  134  A    between atoms: _330  and  _332
REMARK  135  A    between atoms: _332  and  _333
REMARK  136  A    between atoms: _332  and  _335
REMARK  137  A    between atoms: _335  and  _336
REMARK  138  A    between atoms: _339  and  _341
REMARK  139  A    between atoms: _341  and  _342
REMARK  140  A    between atoms: _345  and  _347
REMARK  141  A    between atoms: _347  and  _348
REMARK  142  A    between atoms: _347  and  _350
REMARK  143  A    between atoms: _350  and  _351
REMARK  144  A    between atoms: _356  and  _357
REMARK  145  A    between atoms: _359  and  _361
REMARK  146  A    between atoms: _361  and  _362
REMARK  147  A    between atoms: _361  and  _364
REMARK  148  A    between atoms: _364  and  _365
REMARK  149  A    between atoms: _365  and  _366
REMARK  150  A    between atoms: _369  and  _371
REMARK  151  A    between atoms: _371  and  _372
REMARK  152  A    between atoms: _371  and  _374
REMARK  153  A    between atoms: _374  and  _375
REMARK  154  A    between atoms: _378  and  _380
REMARK  155  A    between atoms: _380  and  _381
REMARK  156  A    between atoms: _384  and  _386
REMARK  157  A    between atoms: _386  and  _387
REMARK  158  A    between atoms: _386  and  _389
REMARK  159  A    between atoms: _389  and  _390
REMARK  160  A    between atoms: _390  and  _391
REMARK  161  A    between atoms: _391  and  _392
REMARK  162  A    between atoms: _401  and  _403
REMARK  163  A    between atoms: _403  and  _404
REMARK  164  A    between atoms: _403  and  _406
REMARK  165  A    between atoms: _406  and  _407
REMARK  166  A    between atoms: _417  and  _419
REMARK  167  A    between atoms: _419  and  _420
REMARK  168  A    between atoms: _419  and  _422
REMARK  169  A    between atoms: _422  and  _423
REMARK  170  A    between atoms: _428  and  _429
REMARK  171  A    between atoms: _431  and  _433
REMARK  172  A    between atoms: _433  and  _434
REMARK  173  A    between atoms: _433  and  _436
REMARK  174  A    between atoms: _436  and  _437
REMARK  175  A    between atoms: _442  and  _443
REMARK  176  A    between atoms: _445  and  _447
REMARK  177  A    between atoms: _447  and  _448
REMARK  178  A    between atoms: _447  and  _450
REMARK  179  A    between atoms: _450  and  _451
REMARK  180  A    between atoms: _451  and  _452
REMARK  181  A    between atoms: _452  and  _453
REMARK  182  A    between atoms: _453  and  _454
REMARK  183  A    between atoms: _458  and  _460
REMARK  184  A    between atoms: _460  and  _461
REMARK  185  A    between atoms: _460  and  _463
REMARK  186  A    between atoms: _463  and  _464
REMARK  187  A    between atoms: _467  and  _469
REMARK  188  A    between atoms: _469  and  _470
REMARK  189  A    between atoms: _469  and  _472
REMARK  190  A    between atoms: _475  and  _477
REMARK  191  A    between atoms: _477  and  _478
REMARK  192  A    between atoms: _477  and  _480
REMARK  193  A    between atoms: _480  and  _481
REMARK  194  A    between atoms: _484  and  _486
REMARK  195  A    between atoms: _486  and  _487
REMARK  196  A    between atoms: _486  and  _489
REMARK  197  A    between atoms: _489  and  _490
REMARK  198  A    between atoms: _492  and  _494
REMARK  199  A    between atoms: _494  and  _495
REMARK  200  A    between atoms: _497  and  _499
REMARK  201  A    between atoms: _499  and  _500
REMARK  202  A    between atoms: _499  and  _502
REMARK  203  A    between atoms: _502  and  _503
REMARK  204  A    between atoms: _506  and  _508
REMARK  205  A    between atoms: _508  and  _509
REMARK  206  A    between atoms: _508  and  _511
REMARK  207  A    between atoms: _511  and  _512
REMARK  208  A    between atoms: _515  and  _517
REMARK  209  A    between atoms: _517  and  _518
REMARK  210  A    between atoms: _517  and  _520
REMARK  211  A    between atoms: _520  and  _521
REMARK  212  A    between atoms: _526  and  _528
REMARK  213  A    between atoms: _528  and  _529
REMARK  214  A    between atoms: _528  and  _531
REMARK  215  A    between atoms: _531  and  _532
REMARK  216  A    between atoms: _532  and  _533
REMARK  217  A    between atoms: _533  and  _534
REMARK  218  A    between atoms: _543  and  _545
REMARK  219  A    between atoms: _545  and  _546
REMARK  220  A    between atoms: _545  and  _548
REMARK  221  A    between atoms: _548  and  _549
REMARK  222  A    between atoms: _549  and  _550
REMARK  223  A    between atoms: _550  and  _551
REMARK  224  A    between atoms: _560  and  _562
REMARK  225  A    between atoms: _562  and  _563
REMARK  226  A    between atoms: _562  and  _565
REMARK  227  A    between atoms: _565  and  _566
REMARK  228  A    between atoms: _568  and  _570
REMARK  229  A    between atoms: _570  and  _571
REMARK  230  A    between atoms: _570  and  _573
REMARK  231  A    between atoms: _573  and  _574
REMARK  232  A    between atoms: _574  and  _575
REMARK  233  A    between atoms: _580  and  _582
REMARK  234  A    between atoms: _582  and  _583
REMARK  235  A    between atoms: _582  and  _585
REMARK  236  A    between atoms: _585  and  _586
REMARK  237  A    between atoms: _589  and  _591
REMARK  238  A    between atoms: _591  and  _592
REMARK  239  A    between atoms: _591  and  _594
REMARK  240  A    between atoms: _594  and  _595
REMARK  241  A    between atoms: _598  and  _600
REMARK  242  A    between atoms: _600  and  _601
REMARK  243  A    between atoms: _600  and  _603
REMARK  244  A    between atoms: _606  and  _608
REMARK  245  A    between atoms: _608  and  _609
REMARK  246  A    between atoms: _611  and  _613
REMARK  247  A    between atoms: _613  and  _614
REMARK  248  A    between atoms: _617  and  _619
REMARK  249  A    between atoms: _619  and  _620
REMARK  250  A    between atoms: _619  and  _622
REMARK                            x       y       z     vdW  Elec       q    Type
REMARK                         _______ _______ _______ _____ _____    ______ ____
ROOT
ATOM      1  C   GLY A   4      19.135   1.225  22.408  0.00  0.00    +0.243 C 
ATOM      2  N   LEU A   5      19.924   0.996  23.453  0.00  0.00    -0.297 N 
ATOM      3  H   LEU A   5      20.676   1.679  23.675  0.00  0.00    +0.150 HD
ATOM      4  O   GLY A   4      18.198   0.486  22.097  0.00  0.00    -0.273 OA
ENDROOT
BRANCH   2   5
ATOM      5  CA  LEU A   5      19.769  -0.179  24.296  0.00  0.00    +0.149 C 
BRANCH   5   6
ATOM      6  C   LEU A   5      18.900   0.009  25.535  0.00  0.00    +0.241 C 
ATOM      7  O   LEU A   5      18.709  -0.939  26.297  0.00  0.00    -0.273 OA
ATOM      8  N   ALA A   6      18.377   1.217  25.745  0.00  0.00    -0.297 N 
ATOM      9  H   ALA A   6      18.570   1.985  25.071  0.00  0.00    +0.150 HD
BRANCH   8  10
ATOM     10  CA  ALA A   6      17.535   1.475  26.912  0.00  0.00    +0.149 C 
ATOM     11  CB  ALA A   6      17.442   2.986  27.184  0.00  0.00    +0.031 C 
BRANCH  10  12
ATOM     12  C   ALA A   6      16.143   0.867  26.713  0.00  0.00    +0.241 C 
ATOM     13  N   TYR A   7      15.237   1.119  27.654  0.00  0.00    -0.298 N 
ATOM     14  H   TYR A   7      15.487   1.742  28.448  0.00  0.00    +0.150 HD
ATOM     15  O   ALA A   6      15.888   0.199  25.710  0.00  0.00    -0.273 OA
BRANCH  13  16
ATOM     16  CA  TYR A   7      13.899   0.539  27.594  0.00  0.00    +0.141 C 
BRANCH  16  17
ATOM     17  C   TYR A   7      12.844   1.211  26.713  0.00  0.00    +0.227 C 
ATOM     18  O   TYR A   7      12.969   2.374  26.315  0.00  0.00    -0.286 OA
ENDBRANCH  16  17
BRANCH  16  19
ATOM     19  CB  TYR A   7      13.358   0.376  29.014  0.00  0.00    +0.054 C 
BRANCH  19  20
ATOM     20  CG  TYR A   7      14.242  -0.471  29.905  0.00  0.00    -0.020 A 
ATOM     21  CD2 TYR A   7      15.213   0.112  30.717  0.00  0.00    -0.001 A 
ATOM     22  CE2 TYR A   7      16.017  -0.660  31.542  0.00  0.00    +0.036 A 
ATOM     23  CZ  TYR A   7      15.859  -2.036  31.558  0.00  0.00    +0.134 A 
ATOM     24  CE1 TYR A   7      14.908  -2.640  30.758  0.00  0.00    +0.036 A 
ATOM     25  CD1 TYR A   7      14.105  -1.857  29.937  0.00  0.00    -0.001 A 
BRANCH  23  26
ATOM     26  OH  TYR A   7      16.640  -2.808  32.387  0.00  0.00    -0.506 OA
ATOM     27  HH  TYR A   7      16.060  -3.296  33.024  0.00  0.00    +0.292 HD
ENDBRANCH  23  26
ENDBRANCH  19  20
ENDBRANCH  16  19
ENDBRANCH  13  16
ENDBRANCH  10  12
ENDBRANCH   8  10
ENDBRANCH   5   6
BRANCH   5  28
ATOM     28  CB  LEU A   5      21.158  -0.686  24.707  0.00  0.00    +0.029 C 
BRANCH  28  29
ATOM     29  CG  LEU A   5      21.998  -1.170  23.522  0.00  0.00    +0.002 C 
ATOM     30  CD2 LEU A   5      23.461  -1.309  23.918  0.00  0.00    +0.000 C 
ATOM     31  CD1 LEU A   5      21.434  -2.492  23.026  0.00  0.00    +0.000 C 
ENDBRANCH  28  29
ENDBRANCH   5  28
ENDBRANCH   2   5
BRANCH   1  32
ATOM     32  CA  GLY A   4      19.445   2.469  21.598  0.00  0.00    +0.176 C 
BRANCH  32  35
ATOM     33  C   LEU A   3      21.243   1.689  20.171  0.00  0.00    +0.241 C 
ATOM     34  O   LEU A   3      22.042   1.662  21.110  0.00  0.00    -0.273 OA
ATOM     35  N   GLY A   4      19.977   2.079  20.302  0.00  0.00    -0.295 N 
ATOM     36  H   GLY A   4      19.360   2.105  19.466  0.00  0.00    +0.150 HD
BRANCH  33  37
ATOM     37  CA  LEU A   3      21.676   1.282  18.763  0.00  0.00    +0.149 C 
BRANCH  37  39
ATOM     38  C   ILE A   2      21.853   3.008  17.080  0.00  0.00    +0.241 C 
ATOM     39  N   LEU A   3      22.378   2.381  18.125  0.00  0.00    -0.297 N 
ATOM     40  H   LEU A   3      23.304   2.681  18.492  0.00  0.00    +0.150 HD
ATOM     41  O   ILE A   2      20.772   2.690  16.587  0.00  0.00    -0.273 OA
BRANCH  38  42
ATOM     42  CA  ILE A   2      22.671   4.155  16.504  0.00  0.00    +0.148 C 
BRANCH  42  44
ATOM     43  C   GLY A   1      23.740   4.324  14.338  0.00  0.00    +0.240 C 
ATOM     44  N   ILE A   2      22.631   4.171  15.049  0.00  0.00    -0.297 N 
ATOM     45  H   ILE A   2      21.720   4.061  14.560  0.00  0.00    +0.150 HD
ATOM     46  O   GLY A   1      24.858   4.420  14.850  0.00  0.00    -0.274 OA
BRANCH  43  47
ATOM     47  CA  GLY A   1      23.582   4.356  12.836  0.00  0.00    +0.169 C 
BRANCH  47  48
ATOM     48  N   GLY A   1      24.877   4.552  12.208  0.00  0.00    -0.236 NA
ATOM     49  H   GLY A   1      25.748   4.396  12.755  0.00  0.00    +0.142 HD
ENDBRANCH  47  48
ENDBRANCH  43  47
ENDBRANCH  42  44
BRANCH  42  50
ATOM     50  CB  ILE A   2      22.134   5.492  17.064  0.00  0.00    +0.027 C 
ATOM     51  CG2 ILE A   2      20.677   5.668  16.661  0.00  0.00    +0.002 C 
BRANCH  50  52
ATOM     52  CG1 ILE A   2      22.267   5.534  18.585  0.00  0.00    +0.002 C 
ATOM     53  CD1 ILE A   2      21.980   6.910  19.174  0.00  0.00    +0.000 C 
ENDBRANCH  50  52
ENDBRANCH  42  50
ENDBRANCH  38  42
ENDBRANCH  37  39
BRANCH  37  54
ATOM     54  CB  LEU A   3      22.570   0.036  18.831  0.00  0.00    +0.029 C 
BRANCH  54  55
ATOM     55  CG  LEU A   3      21.945  -1.207  19.481  0.00  0.00    +0.002 C 
ATOM     56  CD2 LEU A   3      22.962  -2.343  19.519  0.00  0.00    +0.000 C 
ATOM     57  CD1 LEU A   3      20.700  -1.623  18.700  0.00  0.00    +0.000 C 
ENDBRANCH  54  55
ENDBRANCH  37  54
ENDBRANCH  33  37
ENDBRANCH  32  35
ENDBRANCH   1  32
TORSDOF 23
REMARK  Name = ../refined-set-2016/3lpi/3lpi_pocket.pdb
REMARK  250 active torsions:
REMARK  status: ('A' for Active; 'I' for Inactive)
REMARK    1  A    between atoms: _1  and  _3
REMARK    2  A    between atoms: _3  and  _4
REMARK    3  A    between atoms: _3  and  _6
REMARK    4  A    between atoms: _6  and  _7
REMARK    5  A    between atoms: _7  and  _8
REMARK    6  A    between atoms: _8  and  _9
REMARK    7  A    between atoms: _9  and  _10
REMARK    8  A    between atoms: _14  and  _16
REMARK    9  A    between atoms: _16  and  _17
REMARK   10  A    between atoms: _16  and  _19
REMARK   11  A    between atoms: _19  and  _20
REMARK   12  A    between atoms: _22  and  _24
REMARK   13  A    between atoms: _24  and  _25
REMARK   14  A    between atoms: _27  and  _29
REMARK   15  A    between atoms: _29  and  _30
REMARK   16  A    between atoms: _29  and  _32
REMARK   17  A    between atoms: _32  and  _33
REMARK   18  A    between atoms: _33  and  _34
REMARK   19  A    between atoms: _39  and  _41
REMARK   20  A    between atoms: _41  and  _42
REMARK   21  A    between atoms: _44  and  _46
REMARK   22  A    between atoms: _46  and  _47
REMARK   23  A    between atoms: _46  and  _49
REMARK   24  A    between atoms: _49  and  _50
REMARK   25  A    between atoms: _55  and  _56
REMARK   26  A    between atoms: _58  and  _60
REMARK   27  A    between atoms: _60  and  _61
REMARK   28  A    between atoms: _60  and  _63
REMARK   29  A    between atoms: _63  and  _64
REMARK   30  A    between atoms: _67  and  _69
REMARK   31  A    between atoms: _69  and  _70
REMARK   32  A    between atoms: _69  and  _72
REMARK   33  A    between atoms: _75  and  _77
REMARK   34  A    between atoms: _77  and  _78
REMARK   35  A    between atoms: _77  and  _80
REMARK   36  A    between atoms: _80  and  _81
REMARK   37  A    between atoms: _84  and  _86
REMARK   38  A    between atoms: _86  and  _87
REMARK   39  A    between atoms: _86  and  _89
REMARK   40  A    between atoms: _89  and  _90
REMARK   41  A    between atoms: _93  and  _95
REMARK   42  A    between atoms: _95  and  _96
REMARK   43  A    between atoms: _98  and  _100
REMARK   44  A    between atoms: _100  and  _101
REMARK   45  A    between atoms: _100  and  _103
REMARK   46  A    between atoms: _103  and  _104
REMARK   47  A    between atoms: _106  and  _108
REMARK   48  A    between atoms: _108  and  _109
REMARK   49  A    between atoms: _108  and  _111
REMARK   50  A    between atoms: _111  and  _112
REMARK   51  A    between atoms: _114  and  _116
REMARK   52  A    between atoms: _116  and  _117
REMARK   53  A    between atoms: _116  and  _119
REMARK   54  A    between atoms: _119  and  _120
REMARK   55  A    between atoms: _125  and  _127
REMARK   56  A    between atoms: _127  and  _128
REMARK   57  A    between atoms: _127  and  _130
REMARK   58  A    between atoms: _130  and  _131
REMARK   59  A    between atoms: _136  and  _137
REMARK   60  A    between atoms: _139  and  _141
REMARK   61  A    between atoms: _141  and  _142
REMARK   62  A    between atoms: _141  and  _144
REMARK   63  A    between atoms: _148  and  _149
REMARK   64  A    between atoms: _154  and  _156
REMARK   65  A    between atoms: _156  and  _157
REMARK   66  A    between atoms: _156  and  _159
REMARK   67  A    between atoms: _159  and  _160
REMARK   68  A    between atoms: _165  and  _166
REMARK   69  A    between atoms: _168  and  _170
REMARK   70  A    between atoms: _170  and  _171
REMARK   71  A    between atoms: _170  and  _173
REMARK   72  A    between atoms: _173  and  _174
REMARK   73  A    between atoms: _177  and  _179
REMARK   74  A    between atoms: _179  and  _180
REMARK   75  A    between atoms: _179  and  _182
REMARK   76  A    between atoms: _182  and  _183
REMARK   77  A    between atoms: _183  and  _184
REMARK   78  A    between atoms: _189  and  _191
REMARK   79  A    between atoms: _191  and  _192
REMARK   80  A    between atoms: _194  and  _196
REMARK   81  A    between atoms: _196  and  _197
REMARK   82  A    between atoms: _196  and  _199
REMARK   83  A    between atoms: _199  and  _200
REMARK   84  A    between atoms: _200  and  _201
REMARK   85  A    between atoms: _201  and  _202
REMARK   86  A    between atoms: _202  and  _203
REMARK   87  A    between atoms: _207  and  _209
REMARK   88  A    between atoms: _209  and  _210
REMARK   89  A    between atoms: _209  and  _212
REMARK   90  A    between atoms: _212  and  _213
REMARK   91  A    between atoms: _223  and  _225
REMARK   92  A    between atoms: _225  and  _226
REMARK   93  A    between atoms: _225  and  _228
REMARK   94  A    between atoms: _228  and  _229
REMARK   95  A    between atoms: _232  and  _234
REMARK   96  A    between atoms: _234  and  _235
REMARK   97  A    between atoms: _234  and  _237
REMARK   98  A    between atoms: _237  and  _238
REMARK   99  A    between atoms: _238  and  _239
REMARK  100  A    between atoms: _239  and  _240
REMARK  101  A    between atoms: _240  and  _241
REMARK  102  A    between atoms: _245  and  _247
REMARK  103  A    between atoms: _247  and  _248
REMARK  104  A    between atoms: _247  and  _250
REMARK  105  A    between atoms: _250  and  _251
REMARK  106  A    between atoms: _257  and  _259
REMARK  107  A    between atoms: _259  and  _260
REMARK  108  A    between atoms: _259  and  _262
REMARK  109  A    between atoms: _262  and  _263
REMARK  110  A    between atoms: _269  and  _271
REMARK  111  A    between atoms: _271  and  _272
REMARK  112  A    between atoms: _271  and  _274
REMARK  113  A    between atoms: _274  and  _275
REMARK  114  A    between atoms: _278  and  _280
REMARK  115  A    between atoms: _280  and  _281
REMARK  116  A    between atoms: _280  and  _283
REMARK  117  A    between atoms: _283  and  _284
REMARK  118  A    between atoms: _286  and  _288
REMARK  119  A    between atoms: _288  and  _289
REMARK  120  A    between atoms: _288  and  _291
REMARK  121  A    between atoms: _291  and  _292
REMARK  122  A    between atoms: _302  and  _304
REMARK  123  A    between atoms: _304  and  _305
REMARK  124  A    between atoms: _307  and  _309
REMARK  125  A    between atoms: _309  and  _310
REMARK  126  A    between atoms: _309  and  _312
REMARK  127  A    between atoms: _312  and  _313
REMARK  128  A    between atoms: _316  and  _318
REMARK  129  A    between atoms: _318  and  _319
REMARK  130  A    between atoms: _318  and  _321
REMARK  131  A    between atoms: _321  and  _322
REMARK  132  A    between atoms: _325  and  _327
REMARK  133  A    between atoms: _327  and  _328
REMARK  134  A    between atoms: _330  and  _332
REMARK  135  A    between atoms: _332  and  _333
REMARK  136  A    between atoms: _332  and  _335
REMARK  137  A    between atoms: _335  and  _336
REMARK  138  A    between atoms: _339  and  _341
REMARK  139  A    between atoms: _341  and  _342
REMARK  140  A    between atoms: _345  and  _347
REMARK  141  A    between atoms: _347  and  _348
REMARK  142  A    between atoms: _347  and  _350
REMARK  143  A    between atoms: _350  and  _351
REMARK  144  A    between atoms: _356  and  _357
REMARK  145  A    between atoms: _359  and  _361
REMARK  146  A    between atoms: _361  and  _362
REMARK  147  A    between atoms: _361  and  _364
REMARK  148  A    between atoms: _364  and  _365
REMARK  149  A    between atoms: _365  and  _366
REMARK  150  A    between atoms: _369  and  _371
REMARK  151  A    between atoms: _371  and  _372
REMARK  152  A    between atoms: _371  and  _374
REMARK  153  A    between atoms: _374  and  _375
REMARK  154  A    between atoms: _378  and  _380
REMARK  155  A    between atoms: _380  and  _381
REMARK  156  A    between atoms: _384  and  _386
REMARK  157  A    between atoms: _386  and  _387
REMARK  158  A    between atoms: _386  and  _389
REMARK  159  A    between atoms: _389  and  _390
REMARK  160  A    between atoms: _390  and  _391
REMARK  161  A    between atoms: _391  and  _392
REMARK  162  A    between atoms: _401  and  _403
REMARK  163  A    between atoms: _403  and  _404
REMARK  164  A    between atoms: _403  and  _406
REMARK  165  A    between atoms: _406  and  _407
REMARK  166  A    between atoms: _417  and  _419
REMARK  167  A    between atoms: _419  and  _420
REMARK  168  A    between atoms: _419  and  _422
REMARK  169  A    between atoms: _422  and  _423
REMARK  170  A    between atoms: _428  and  _429
REMARK  171  A    between atoms: _431  and  _433
REMARK  172  A    between atoms: _433  and  _434
REMARK  173  A    between atoms: _433  and  _436
REMARK  174  A    between atoms: _436  and  _437
REMARK  175  A    between atoms: _442  and  _443
REMARK  176  A    between atoms: _445  and  _447
REMARK  177  A    between atoms: _447  and  _448
REMARK  178  A    between atoms: _447  and  _450
REMARK  179  A    between atoms: _450  and  _451
REMARK  180  A    between atoms: _451  and  _452
REMARK  181  A    between atoms: _452  and  _453
REMARK  182  A    between atoms: _453  and  _454
REMARK  183  A    between atoms: _458  and  _460
REMARK  184  A    between atoms: _460  and  _461
REMARK  185  A    between atoms: _460  and  _463
REMARK  186  A    between atoms: _463  and  _464
REMARK  187  A    between atoms: _467  and  _469
REMARK  188  A    between atoms: _469  and  _470
REMARK  189  A    between atoms: _469  and  _472
REMARK  190  A    between atoms: _475  and  _477
REMARK  191  A    between atoms: _477  and  _478
REMARK  192  A    between atoms: _477  and  _480
REMARK  193  A    between atoms: _480  and  _481
REMARK  194  A    between atoms: _484  and  _486
REMARK  195  A    between atoms: _486  and  _487
REMARK  196  A    between atoms: _486  and  _489
REMARK  197  A    between atoms: _489  and  _490
REMARK  198  A    between atoms: _492  and  _494
REMARK  199  A    between atoms: _494  and  _495
REMARK  200  A    between atoms: _497  and  _499
REMARK  201  A    between atoms: _499  and  _500
REMARK  202  A    between atoms: _499  and  _502
REMARK  203  A    between atoms: _502  and  _503
REMARK  204  A    between atoms: _506  and  _508
REMARK  205  A    between atoms: _508  and  _509
REMARK  206  A    between atoms: _508  and  _511
REMARK  207  A    between atoms: _511  and  _512
REMARK  208  A    between atoms: _515  and  _517
REMARK  209  A    between atoms: _517  and  _518
REMARK  210  A    between atoms: _517  and  _520
REMARK  211  A    between atoms: _520  and  _521
REMARK  212  A    between atoms: _526  and  _528
REMARK  213  A    between atoms: _528  and  _529
REMARK  214  A    between atoms: _528  and  _531
REMARK  215  A    between atoms: _531  and  _532
REMARK  216  A    between atoms: _532  and  _533
REMARK  217  A    between atoms: _533  and  _534
REMARK  218  A    between atoms: _543  and  _545
REMARK  219  A    between atoms: _545  and  _546
REMARK  220  A    between atoms: _545  and  _548
REMARK  221  A    between atoms: _548  and  _549
REMARK  222  A    between atoms: _549  and  _550
REMARK  223  A    between atoms: _550  and  _551
REMARK  224  A    between atoms: _560  and  _562
REMARK  225  A    between atoms: _562  and  _563
REMARK  226  A    between atoms: _562  and  _565
REMARK  227  A    between atoms: _565  and  _566
REMARK  228  A    between atoms: _568  and  _570
REMARK  229  A    between atoms: _570  and  _571
REMARK  230  A    between atoms: _570  and  _573
REMARK  231  A    between atoms: _573  and  _574
REMARK  232  A    between atoms: _574  and  _575
REMARK  233  A    between atoms: _580  and  _582
REMARK  234  A    between atoms: _582  and  _583
REMARK  235  A    between atoms: _582  and  _585
REMARK  236  A    between atoms: _585  and  _586
REMARK  237  A    between atoms: _589  and  _591
REMARK  238  A    between atoms: _591  and  _592
REMARK  239  A    between atoms: _591  and  _594
REMARK  240  A    between atoms: _594  and  _595
REMARK  241  A    between atoms: _598  and  _600
REMARK  242  A    between atoms: _600  and  _601
REMARK  243  A    between atoms: _600  and  _603
REMARK  244  A    between atoms: _606  and  _608
REMARK  245  A    between atoms: _608  and  _609
REMARK  246  A    between atoms: _611  and  _613
REMARK  247  A    between atoms: _613  and  _614
REMARK  248  A    between atoms: _617  and  _619
REMARK  249  A    between atoms: _619  and  _620
REMARK  250  A    between atoms: _619  and  _622
REMARK                            x       y       z     vdW  Elec       q    Type
REMARK                         _______ _______ _______ _____ _____    ______ ____
ROOT
ATOM      1  C   ILE A   2      11.806   6.047  24.648  0.00  0.00    +0.241 C 
ATOM      2  N   ALA A   3      11.251   4.983  24.075  0.00  0.00    -0.297 N 
ATOM      3  H   ALA A   3      10.723   4.299  24.654  0.00  0.00    +0.150 HD
ATOM      4  O   ILE A   2      12.477   6.863  24.011  0.00  0.00    -0.273 OA
ENDROOT
BRANCH   2   5
ATOM      5  CA  ALA A   3      11.380   4.773  22.639  0.00  0.00    +0.149 C 
ATOM      6  CB  ALA A   3      11.012   3.331  22.273  0.00  0.00    +0.031 C 
BRANCH   5   7
ATOM      7  C   ALA A   3      10.428   5.753  21.948  0.00  0.00    +0.241 C 
ATOM      8  O   ALA A   3       9.388   6.111  22.505  0.00  0.00    -0.273 OA
ATOM      9  N   ARG A   4      10.796   6.208  20.756  0.00  0.00    -0.298 N 
ATOM     10  H   ARG A   4      11.706   5.903  20.356  0.00  0.00    +0.150 HD
BRANCH   9  11
ATOM     11  CA  ARG A   4       9.954   7.128  19.991  0.00  0.00    +0.137 C 
BRANCH  11  12
ATOM     12  C   ARG A   4       9.350   6.332  18.841  0.00  0.00    +0.227 C 
ATOM     13  O   ARG A   4      10.016   5.466  18.270  0.00  0.00    -0.286 OA
ENDBRANCH  11  12
BRANCH  11  14
ATOM     14  CB  ARG A   4      10.784   8.289  19.433  0.00  0.00    +0.031 C 
BRANCH  14  15
ATOM     15  CG  ARG A   4      10.878   9.520  20.334  0.00  0.00    +0.045 C 
BRANCH  15  16
ATOM     16  CD  ARG A   4      11.294   9.181  21.755  0.00  0.00    +0.174 C 
BRANCH  16  17
ATOM     17  NE  ARG A   4      11.621  10.381  22.526  0.00  0.00    -0.265 N 
ATOM     18  CZ  ARG A   4      11.684  10.428  23.854  0.00  0.00    +0.342 C 
ATOM     19  NH2 ARG A   4      11.437   9.341  24.570  0.00  0.00    -0.292 N 
ATOM     20 HH21 ARG A   4      11.487   9.380  25.608  0.00  0.00    +0.255 HD
ATOM     21 HH22 ARG A   4      11.193   8.449  24.094  0.00  0.00    +0.255 HD
ATOM     22  NH1 ARG A   4      12.006  11.558  24.470  0.00  0.00    -0.292 N 
ATOM     23 HH11 ARG A   4      12.054  11.589  25.508  0.00  0.00    +0.255 HD
ATOM     24 HH12 ARG A   4      12.211  12.413  23.914  0.00  0.00    +0.255 HD
ATOM     25  HE  ARG A   4      11.817  11.256  22.000  0.00  0.00    +0.259 HD
ENDBRANCH  16  17
ENDBRANCH  15  16
ENDBRANCH  14  15
ENDBRANCH  11  14
ENDBRANCH   9  11
ENDBRANCH   5   7
ENDBRANCH   2   5
BRANCH   1  26
ATOM     26  CA  ILE A   2      11.578   6.217  26.152  0.00  0.00    +0.148 C 
BRANCH  26  29
ATOM     27  C   GLU A   1       9.799   4.936  27.188  0.00  0.00    +0.238 C 
ATOM     28  O   GLU A   1       9.003   5.859  27.030  0.00  0.00    -0.274 OA
ATOM     29  N   ILE A   2      11.075   5.013  26.806  0.00  0.00    -0.297 N 
ATOM     30  H   ILE A   2      11.715   4.211  26.975  0.00  0.00    +0.150 HD
BRANCH  27  31
ATOM     31  CA  GLU A   1       9.345   3.648  27.856  0.00  0.00    +0.145 C 
BRANCH  31  32
ATOM     32  N   GLU A   1      10.005   2.456  27.336  0.00  0.00    -0.238 NA
ATOM     33  H   GLU A   1      10.489   1.809  27.991  0.00  0.00    +0.142 HD
ENDBRANCH  31  32
BRANCH  31  34
ATOM     34  CB  GLU A   1       9.544   3.773  29.370  0.00  0.00    +0.038 C 
BRANCH  34  35
ATOM     35  CG  GLU A   1       8.736   4.913  29.964  0.00  0.00    +0.116 C 
BRANCH  35  36
ATOM     36  CD  GLU A   1       8.823   4.982  31.472  0.00  0.00    +0.365 C 
ATOM     37  OE2 GLU A   1       8.603   3.944  32.133  0.00  0.00    -0.246 OA
ATOM     38  OE1 GLU A   1       9.102   6.081  31.995  0.00  0.00    -0.246 OA
ENDBRANCH  35  36
ENDBRANCH  34  35
ENDBRANCH  31  34
ENDBRANCH  27  31
ENDBRANCH  26  29
BRANCH  26  39
ATOM     39  CB  ILE A   2      12.887   6.736  26.823  0.00  0.00    +0.027 C 
ATOM     40  CG2 ILE A   2      12.629   7.054  28.289  0.00  0.00    +0.002 C 
BRANCH  39  41
ATOM     41  CG1 ILE A   2      14.003   5.697  26.725  0.00  0.00    +0.002 C 
ATOM     42  CD1 ILE A   2      15.276   6.144  27.417  0.00  0.00    +0.000 C 
ENDBRANCH  39  41
ENDBRANCH  26  39
ENDBRANCH   1  26
TORSDOF 17
REMARK  Name = ../refined-set-2016/3lpi/3lpi_pocket.pdb
REMARK  250 active torsions:
REMARK  status: ('A' for Active; 'I' for Inactive)
REMARK    1  A    between atoms: _1  and  _3
REMARK    2  A    between atoms: _3  and  _4
REMARK    3  A    between atoms: _3  and  _6
REMARK    4  A    between atoms: _6  and  _7
REMARK    5  A    between atoms: _7  and  _8
REMARK    6  A    between atoms: _8  and  _9
REMARK    7  A    between atoms: _9  and  _10
REMARK    8  A    between atoms: _14  and  _16
REMARK    9  A    between atoms: _16  and  _17
REMARK   10  A    between atoms: _16  and  _19
REMARK   11  A    between atoms: _19  and  _20
REMARK   12  A    between atoms: _22  and  _24
REMARK   13  A    between atoms: _24  and  _25
REMARK   14  A    between atoms: _27  and  _29
REMARK   15  A    between atoms: _29  and  _30
REMARK   16  A    between atoms: _29  and  _32
REMARK   17  A    between atoms: _32  and  _33
REMARK   18  A    between atoms: _33  and  _34
REMARK   19  A    between atoms: _39  and  _41
REMARK   20  A    between atoms: _41  and  _42
REMARK   21  A    between atoms: _44  and  _46
REMARK   22  A    between atoms: _46  and  _47
REMARK   23  A    between atoms: _46  and  _49
REMARK   24  A    between atoms: _49  and  _50
REMARK   25  A    between atoms: _55  and  _56
REMARK   26  A    between atoms: _58  and  _60
REMARK   27  A    between atoms: _60  and  _61
REMARK   28  A    between atoms: _60  and  _63
REMARK   29  A    between atoms: _63  and  _64
REMARK   30  A    between atoms: _67  and  _69
REMARK   31  A    between atoms: _69  and  _70
REMARK   32  A    between atoms: _69  and  _72
REMARK   33  A    between atoms: _75  and  _77
REMARK   34  A    between atoms: _77  and  _78
REMARK   35  A    between atoms: _77  and  _80
REMARK   36  A    between atoms: _80  and  _81
REMARK   37  A    between atoms: _84  and  _86
REMARK   38  A    between atoms: _86  and  _87
REMARK   39  A    between atoms: _86  and  _89
REMARK   40  A    between atoms: _89  and  _90
REMARK   41  A    between atoms: _93  and  _95
REMARK   42  A    between atoms: _95  and  _96
REMARK   43  A    between atoms: _98  and  _100
REMARK   44  A    between atoms: _100  and  _101
REMARK   45  A    between atoms: _100  and  _103
REMARK   46  A    between atoms: _103  and  _104
REMARK   47  A    between atoms: _106  and  _108
REMARK   48  A    between atoms: _108  and  _109
REMARK   49  A    between atoms: _108  and  _111
REMARK   50  A    between atoms: _111  and  _112
REMARK   51  A    between atoms: _114  and  _116
REMARK   52  A    between atoms: _116  and  _117
REMARK   53  A    between atoms: _116  and  _119
REMARK   54  A    between atoms: _119  and  _120
REMARK   55  A    between atoms: _125  and  _127
REMARK   56  A    between atoms: _127  and  _128
REMARK   57  A    between atoms: _127  and  _130
REMARK   58  A    between atoms: _130  and  _131
REMARK   59  A    between atoms: _136  and  _137
REMARK   60  A    between atoms: _139  and  _141
REMARK   61  A    between atoms: _141  and  _142
REMARK   62  A    between atoms: _141  and  _144
REMARK   63  A    between atoms: _148  and  _149
REMARK   64  A    between atoms: _154  and  _156
REMARK   65  A    between atoms: _156  and  _157
REMARK   66  A    between atoms: _156  and  _159
REMARK   67  A    between atoms: _159  and  _160
REMARK   68  A    between atoms: _165  and  _166
REMARK   69  A    between atoms: _168  and  _170
REMARK   70  A    between atoms: _170  and  _171
REMARK   71  A    between atoms: _170  and  _173
REMARK   72  A    between atoms: _173  and  _174
REMARK   73  A    between atoms: _177  and  _179
REMARK   74  A    between atoms: _179  and  _180
REMARK   75  A    between atoms: _179  and  _182
REMARK   76  A    between atoms: _182  and  _183
REMARK   77  A    between atoms: _183  and  _184
REMARK   78  A    between atoms: _189  and  _191
REMARK   79  A    between atoms: _191  and  _192
REMARK   80  A    between atoms: _194  and  _196
REMARK   81  A    between atoms: _196  and  _197
REMARK   82  A    between atoms: _196  and  _199
REMARK   83  A    between atoms: _199  and  _200
REMARK   84  A    between atoms: _200  and  _201
REMARK   85  A    between atoms: _201  and  _202
REMARK   86  A    between atoms: _202  and  _203
REMARK   87  A    between atoms: _207  and  _209
REMARK   88  A    between atoms: _209  and  _210
REMARK   89  A    between atoms: _209  and  _212
REMARK   90  A    between atoms: _212  and  _213
REMARK   91  A    between atoms: _223  and  _225
REMARK   92  A    between atoms: _225  and  _226
REMARK   93  A    between atoms: _225  and  _228
REMARK   94  A    between atoms: _228  and  _229
REMARK   95  A    between atoms: _232  and  _234
REMARK   96  A    between atoms: _234  and  _235
REMARK   97  A    between atoms: _234  and  _237
REMARK   98  A    between atoms: _237  and  _238
REMARK   99  A    between atoms: _238  and  _239
REMARK  100  A    between atoms: _239  and  _240
REMARK  101  A    between atoms: _240  and  _241
REMARK  102  A    between atoms: _245  and  _247
REMARK  103  A    between atoms: _247  and  _248
REMARK  104  A    between atoms: _247  and  _250
REMARK  105  A    between atoms: _250  and  _251
REMARK  106  A    between atoms: _257  and  _259
REMARK  107  A    between atoms: _259  and  _260
REMARK  108  A    between atoms: _259  and  _262
REMARK  109  A    between atoms: _262  and  _263
REMARK  110  A    between atoms: _269  and  _271
REMARK  111  A    between atoms: _271  and  _272
REMARK  112  A    between atoms: _271  and  _274
REMARK  113  A    between atoms: _274  and  _275
REMARK  114  A    between atoms: _278  and  _280
REMARK  115  A    between atoms: _280  and  _281
REMARK  116  A    between atoms: _280  and  _283
REMARK  117  A    between atoms: _283  and  _284
REMARK  118  A    between atoms: _286  and  _288
REMARK  119  A    between atoms: _288  and  _289
REMARK  120  A    between atoms: _288  and  _291
REMARK  121  A    between atoms: _291  and  _292
REMARK  122  A    between atoms: _302  and  _304
REMARK  123  A    between atoms: _304  and  _305
REMARK  124  A    between atoms: _307  and  _309
REMARK  125  A    between atoms: _309  and  _310
REMARK  126  A    between atoms: _309  and  _312
REMARK  127  A    between atoms: _312  and  _313
REMARK  128  A    between atoms: _316  and  _318
REMARK  129  A    between atoms: _318  and  _319
REMARK  130  A    between atoms: _318  and  _321
REMARK  131  A    between atoms: _321  and  _322
REMARK  132  A    between atoms: _325  and  _327
REMARK  133  A    between atoms: _327  and  _328
REMARK  134  A    between atoms: _330  and  _332
REMARK  135  A    between atoms: _332  and  _333
REMARK  136  A    between atoms: _332  and  _335
REMARK  137  A    between atoms: _335  and  _336
REMARK  138  A    between atoms: _339  and  _341
REMARK  139  A    between atoms: _341  and  _342
REMARK  140  A    between atoms: _345  and  _347
REMARK  141  A    between atoms: _347  and  _348
REMARK  142  A    between atoms: _347  and  _350
REMARK  143  A    between atoms: _350  and  _351
REMARK  144  A    between atoms: _356  and  _357
REMARK  145  A    between atoms: _359  and  _361
REMARK  146  A    between atoms: _361  and  _362
REMARK  147  A    between atoms: _361  and  _364
REMARK  148  A    between atoms: _364  and  _365
REMARK  149  A    between atoms: _365  and  _366
REMARK  150  A    between atoms: _369  and  _371
REMARK  151  A    between atoms: _371  and  _372
REMARK  152  A    between atoms: _371  and  _374
REMARK  153  A    between atoms: _374  and  _375
REMARK  154  A    between atoms: _378  and  _380
REMARK  155  A    between atoms: _380  and  _381
REMARK  156  A    between atoms: _384  and  _386
REMARK  157  A    between atoms: _386  and  _387
REMARK  158  A    between atoms: _386  and  _389
REMARK  159  A    between atoms: _389  and  _390
REMARK  160  A    between atoms: _390  and  _391
REMARK  161  A    between atoms: _391  and  _392
REMARK  162  A    between atoms: _401  and  _403
REMARK  163  A    between atoms: _403  and  _404
REMARK  164  A    between atoms: _403  and  _406
REMARK  165  A    between atoms: _406  and  _407
REMARK  166  A    between atoms: _417  and  _419
REMARK  167  A    between atoms: _419  and  _420
REMARK  168  A    between atoms: _419  and  _422
REMARK  169  A    between atoms: _422  and  _423
REMARK  170  A    between atoms: _428  and  _429
REMARK  171  A    between atoms: _431  and  _433
REMARK  172  A    between atoms: _433  and  _434
REMARK  173  A    between atoms: _433  and  _436
REMARK  174  A    between atoms: _436  and  _437
REMARK  175  A    between atoms: _442  and  _443
REMARK  176  A    between atoms: _445  and  _447
REMARK  177  A    between atoms: _447  and  _448
REMARK  178  A    between atoms: _447  and  _450
REMARK  179  A    between atoms: _450  and  _451
REMARK  180  A    between atoms: _451  and  _452
REMARK  181  A    between atoms: _452  and  _453
REMARK  182  A    between atoms: _453  and  _454
REMARK  183  A    between atoms: _458  and  _460
REMARK  184  A    between atoms: _460  and  _461
REMARK  185  A    between atoms: _460  and  _463
REMARK  186  A    between atoms: _463  and  _464
REMARK  187  A    between atoms: _467  and  _469
REMARK  188  A    between atoms: _469  and  _470
REMARK  189  A    between atoms: _469  and  _472
REMARK  190  A    between atoms: _475  and  _477
REMARK  191  A    between atoms: _477  and  _478
REMARK  192  A    between atoms: _477  and  _480
REMARK  193  A    between atoms: _480  and  _481
REMARK  194  A    between atoms: _484  and  _486
REMARK  195  A    between atoms: _486  and  _487
REMARK  196  A    between atoms: _486  and  _489
REMARK  197  A    between atoms: _489  and  _490
REMARK  198  A    between atoms: _492  and  _494
REMARK  199  A    between atoms: _494  and  _495
REMARK  200  A    between atoms: _497  and  _499
REMARK  201  A    between atoms: _499  and  _500
REMARK  202  A    between atoms: _499  and  _502
REMARK  203  A    between atoms: _502  and  _503
REMARK  204  A    between atoms: _506  and  _508
REMARK  205  A    between atoms: _508  and  _509
REMARK  206  A    between atoms: _508  and  _511
REMARK  207  A    between atoms: _511  and  _512
REMARK  208  A    between atoms: _515  and  _517
REMARK  209  A    between atoms: _517  and  _518
REMARK  210  A    between atoms: _517  and  _520
REMARK  211  A    between atoms: _520  and  _521
REMARK  212  A    between atoms: _526  and  _528
REMARK  213  A    between atoms: _528  and  _529
REMARK  214  A    between atoms: _528  and  _531
REMARK  215  A    between atoms: _531  and  _532
REMARK  216  A    between atoms: _532  and  _533
REMARK  217  A    between atoms: _533  and  _534
REMARK  218  A    between atoms: _543  and  _545
REMARK  219  A    between atoms: _545  and  _546
REMARK  220  A    between atoms: _545  and  _548
REMARK  221  A    between atoms: _548  and  _549
REMARK  222  A    between atoms: _549  and  _550
REMARK  223  A    between atoms: _550  and  _551
REMARK  224  A    between atoms: _560  and  _562
REMARK  225  A    between atoms: _562  and  _563
REMARK  226  A    between atoms: _562  and  _565
REMARK  227  A    between atoms: _565  and  _566
REMARK  228  A    between atoms: _568  and  _570
REMARK  229  A    between atoms: _570  and  _571
REMARK  230  A    between atoms: _570  and  _573
REMARK  231  A    between atoms: _573  and  _574
REMARK  232  A    between atoms: _574  and  _575
REMARK  233  A    between atoms: _580  and  _582
REMARK  234  A    between atoms: _582  and  _583
REMARK  235  A    between atoms: _582  and  _585
REMARK  236  A    between atoms: _585  and  _586
REMARK  237  A    between atoms: _589  and  _591
REMARK  238  A    between atoms: _591  and  _592
REMARK  239  A    between atoms: _591  and  _594
REMARK  240  A    between atoms: _594  and  _595
REMARK  241  A    between atoms: _598  and  _600
REMARK  242  A    between atoms: _600  and  _601
REMARK  243  A    between atoms: _600  and  _603
REMARK  244  A    between atoms: _606  and  _608
REMARK  245  A    between atoms: _608  and  _609
REMARK  246  A    between atoms: _611  and  _613
REMARK  247  A    between atoms: _613  and  _614
REMARK  248  A    between atoms: _617  and  _619
REMARK  249  A    between atoms: _619  and  _620
REMARK  250  A    between atoms: _619  and  _622
REMARK                            x       y       z     vdW  Elec       q    Type
REMARK                         _______ _______ _______ _____ _____    ______ ____
ROOT
ATOM      1  CA  TYR A   2      16.832   4.944  31.123  0.00  0.00    +0.153 C 
ENDROOT
BRANCH   1   3
ATOM      2  C   TRP A   1      14.691   3.884  30.662  0.00  0.00    +0.239 C 
ATOM      3  N   TYR A   2      15.421   4.698  31.415  0.00  0.00    -0.297 N 
ATOM      4  H   TYR A   2      14.980   5.171  32.230  0.00  0.00    +0.150 HD
ATOM      5  O   TRP A   1      15.119   3.366  29.634  0.00  0.00    -0.274 OA
BRANCH   2   6
ATOM      6  CA  TRP A   1      13.273   3.576  31.139  0.00  0.00    +0.149 C 
BRANCH   6   7
ATOM      7  N   TRP A   1      13.536   2.650  32.238  0.00  0.00    -0.238 NA
ATOM      8  H   TRP A   1      14.379   2.809  32.826  0.00  0.00    +0.142 HD
ENDBRANCH   6   7
BRANCH   6   9
ATOM      9  CB  TRP A   1      12.482   4.816  31.597  0.00  0.00    +0.054 C 
BRANCH   9  10
ATOM     10  CG  TRP A   1      13.020   5.629  32.734  0.00  0.00    -0.002 A 
ATOM     11  CD1 TRP A   1      13.688   5.178  33.834  0.00  0.00    +0.068 A 
ATOM     12  NE1 TRP A   1      13.932   6.222  34.701  0.00  0.00    -0.352 N 
ATOM     13  HE1 TRP A   1      14.426   6.148  35.613  0.00  0.00    +0.166 HD
ATOM     14  CE2 TRP A   1      13.418   7.373  34.164  0.00  0.00    +0.056 A 
ATOM     15  CZ2 TRP A   1      13.417   8.674  34.663  0.00  0.00    +0.017 A 
ATOM     16  CH2 TRP A   1      12.822   9.642  33.902  0.00  0.00    +0.001 A 
ATOM     17  CZ3 TRP A   1      12.231   9.339  32.663  0.00  0.00    +0.000 A 
ATOM     18  CE3 TRP A   1      12.233   8.048  32.168  0.00  0.00    +0.001 A 
ATOM     19  CD2 TRP A   1      12.837   7.038  32.926  0.00  0.00    +0.013 A 
ENDBRANCH   9  10
ENDBRANCH   6   9
ENDBRANCH   2   6
ENDBRANCH   1   3
BRANCH   1  20
ATOM     20  C   TYR A   2      17.410   3.887  32.054  0.00  0.00    +0.241 C 
ATOM     21  O   TYR A   2      16.660   3.231  32.780  0.00  0.00    -0.273 OA
ATOM     22  N   TYR A   3      18.720   3.690  32.037  0.00  0.00    -0.298 N 
ATOM     23  H   TYR A   3      19.322   4.188  31.351  0.00  0.00    +0.150 HD
BRANCH  22  24
ATOM     24  CA  TYR A   3      19.297   2.768  32.993  0.00  0.00    +0.141 C 
BRANCH  24  25
ATOM     25  C   TYR A   3      19.571   3.704  34.170  0.00  0.00    +0.227 C 
ATOM     26  O   TYR A   3      20.679   4.206  34.337  0.00  0.00    -0.286 OA
ENDBRANCH  24  25
BRANCH  24  27
ATOM     27  CB  TYR A   3      20.590   2.141  32.456  0.00  0.00    +0.054 C 
BRANCH  27  28
ATOM     28  CG  TYR A   3      20.317   1.037  31.459  0.00  0.00    -0.020 A 
ATOM     29  CD2 TYR A   3      19.851  -0.205  31.884  0.00  0.00    -0.001 A 
ATOM     30  CE2 TYR A   3      19.522  -1.198  30.978  0.00  0.00    +0.036 A 
ATOM     31  CZ  TYR A   3      19.660  -0.958  29.627  0.00  0.00    +0.134 A 
ATOM     32  CE1 TYR A   3      20.127   0.265  29.178  0.00  0.00    +0.036 A 
ATOM     33  CD1 TYR A   3      20.452   1.253  30.091  0.00  0.00    -0.001 A 
BRANCH  31  34
ATOM     34  OH  TYR A   3      19.321  -1.938  28.721  0.00  0.00    -0.506 OA
ATOM     35  HH  TYR A   3      19.479  -1.605  27.802  0.00  0.00    +0.292 HD
ENDBRANCH  31  34
ENDBRANCH  27  28
ENDBRANCH  24  27
ENDBRANCH  22  24
ENDBRANCH   1  20
BRANCH   1  36
ATOM     36  CB  TYR A   2      17.302   6.304  31.656  0.00  0.00    +0.055 C 
BRANCH  36  37
ATOM     37  CG  TYR A   2      16.806   7.514  30.914  0.00  0.00    -0.020 A 
ATOM     38  CD2 TYR A   2      15.717   8.237  31.378  0.00  0.00    -0.001 A 
ATOM     39  CE2 TYR A   2      15.257   9.350  30.699  0.00  0.00    +0.036 A 
ATOM     40  CZ  TYR A   2      15.895   9.749  29.546  0.00  0.00    +0.134 A 
ATOM     41  CE1 TYR A   2      16.979   9.048  29.067  0.00  0.00    +0.036 A 
ATOM     42  CD1 TYR A   2      17.427   7.936  29.749  0.00  0.00    -0.001 A 
BRANCH  40  43
ATOM     43  OH  TYR A   2      15.457  10.859  28.867  0.00  0.00    -0.506 OA
ATOM     44  HH  TYR A   2      16.024  11.001  28.068  0.00  0.00    +0.292 HD
ENDBRANCH  40  43
ENDBRANCH  36  37
ENDBRANCH   1  36
TORSDOF 14
REMARK  Name = ../refined-set-2016/3lpi/3lpi_pocket.pdb
REMARK  250 active torsions:
REMARK  status: ('A' for Active; 'I' for Inactive)
REMARK    1  A    between atoms: _1  and  _3
REMARK    2  A    between atoms: _3  and  _4
REMARK    3  A    between atoms: _3  and  _6
REMARK    4  A    between atoms: _6  and  _7
REMARK    5  A    between atoms: _7  and  _8
REMARK    6  A    between atoms: _8  and  _9
REMARK    7  A    between atoms: _9  and  _10
REMARK    8  A    between atoms: _14  and  _16
REMARK    9  A    between atoms: _16  and  _17
REMARK   10  A    between atoms: _16  and  _19
REMARK   11  A    between atoms: _19  and  _20
REMARK   12  A    between atoms: _22  and  _24
REMARK   13  A    between atoms: _24  and  _25
REMARK   14  A    between atoms: _27  and  _29
REMARK   15  A    between atoms: _29  and  _30
REMARK   16  A    between atoms: _29  and  _32
REMARK   17  A    between atoms: _32  and  _33
REMARK   18  A    between atoms: _33  and  _34
REMARK   19  A    between atoms: _39  and  _41
REMARK   20  A    between atoms: _41  and  _42
REMARK   21  A    between atoms: _44  and  _46
REMARK   22  A    between atoms: _46  and  _47
REMARK   23  A    between atoms: _46  and  _49
REMARK   24  A    between atoms: _49  and  _50
REMARK   25  A    between atoms: _55  and  _56
REMARK   26  A    between atoms: _58  and  _60
REMARK   27  A    between atoms: _60  and  _61
REMARK   28  A    between atoms: _60  and  _63
REMARK   29  A    between atoms: _63  and  _64
REMARK   30  A    between atoms: _67  and  _69
REMARK   31  A    between atoms: _69  and  _70
REMARK   32  A    between atoms: _69  and  _72
REMARK   33  A    between atoms: _75  and  _77
REMARK   34  A    between atoms: _77  and  _78
REMARK   35  A    between atoms: _77  and  _80
REMARK   36  A    between atoms: _80  and  _81
REMARK   37  A    between atoms: _84  and  _86
REMARK   38  A    between atoms: _86  and  _87
REMARK   39  A    between atoms: _86  and  _89
REMARK   40  A    between atoms: _89  and  _90
REMARK   41  A    between atoms: _93  and  _95
REMARK   42  A    between atoms: _95  and  _96
REMARK   43  A    between atoms: _98  and  _100
REMARK   44  A    between atoms: _100  and  _101
REMARK   45  A    between atoms: _100  and  _103
REMARK   46  A    between atoms: _103  and  _104
REMARK   47  A    between atoms: _106  and  _108
REMARK   48  A    between atoms: _108  and  _109
REMARK   49  A    between atoms: _108  and  _111
REMARK   50  A    between atoms: _111  and  _112
REMARK   51  A    between atoms: _114  and  _116
REMARK   52  A    between atoms: _116  and  _117
REMARK   53  A    between atoms: _116  and  _119
REMARK   54  A    between atoms: _119  and  _120
REMARK   55  A    between atoms: _125  and  _127
REMARK   56  A    between atoms: _127  and  _128
REMARK   57  A    between atoms: _127  and  _130
REMARK   58  A    between atoms: _130  and  _131
REMARK   59  A    between atoms: _136  and  _137
REMARK   60  A    between atoms: _139  and  _141
REMARK   61  A    between atoms: _141  and  _142
REMARK   62  A    between atoms: _141  and  _144
REMARK   63  A    between atoms: _148  and  _149
REMARK   64  A    between atoms: _154  and  _156
REMARK   65  A    between atoms: _156  and  _157
REMARK   66  A    between atoms: _156  and  _159
REMARK   67  A    between atoms: _159  and  _160
REMARK   68  A    between atoms: _165  and  _166
REMARK   69  A    between atoms: _168  and  _170
REMARK   70  A    between atoms: _170  and  _171
REMARK   71  A    between atoms: _170  and  _173
REMARK   72  A    between atoms: _173  and  _174
REMARK   73  A    between atoms: _177  and  _179
REMARK   74  A    between atoms: _179  and  _180
REMARK   75  A    between atoms: _179  and  _182
REMARK   76  A    between atoms: _182  and  _183
REMARK   77  A    between atoms: _183  and  _184
REMARK   78  A    between atoms: _189  and  _191
REMARK   79  A    between atoms: _191  and  _192
REMARK   80  A    between atoms: _194  and  _196
REMARK   81  A    between atoms: _196  and  _197
REMARK   82  A    between atoms: _196  and  _199
REMARK   83  A    between atoms: _199  and  _200
REMARK   84  A    between atoms: _200  and  _201
REMARK   85  A    between atoms: _201  and  _202
REMARK   86  A    between atoms: _202  and  _203
REMARK   87  A    between atoms: _207  and  _209
REMARK   88  A    between atoms: _209  and  _210
REMARK   89  A    between atoms: _209  and  _212
REMARK   90  A    between atoms: _212  and  _213
REMARK   91  A    between atoms: _223  and  _225
REMARK   92  A    between atoms: _225  and  _226
REMARK   93  A    between atoms: _225  and  _228
REMARK   94  A    between atoms: _228  and  _229
REMARK   95  A    between atoms: _232  and  _234
REMARK   96  A    between atoms: _234  and  _235
REMARK   97  A    between atoms: _234  and  _237
REMARK   98  A    between atoms: _237  and  _238
REMARK   99  A    between atoms: _238  and  _239
REMARK  100  A    between atoms: _239  and  _240
REMARK  101  A    between atoms: _240  and  _241
REMARK  102  A    between atoms: _245  and  _247
REMARK  103  A    between atoms: _247  and  _248
REMARK  104  A    between atoms: _247  and  _250
REMARK  105  A    between atoms: _250  and  _251
REMARK  106  A    between atoms: _257  and  _259
REMARK  107  A    between atoms: _259  and  _260
REMARK  108  A    between atoms: _259  and  _262
REMARK  109  A    between atoms: _262  and  _263
REMARK  110  A    between atoms: _269  and  _271
REMARK  111  A    between atoms: _271  and  _272
REMARK  112  A    between atoms: _271  and  _274
REMARK  113  A    between atoms: _274  and  _275
REMARK  114  A    between atoms: _278  and  _280
REMARK  115  A    between atoms: _280  and  _281
REMARK  116  A    between atoms: _280  and  _283
REMARK  117  A    between atoms: _283  and  _284
REMARK  118  A    between atoms: _286  and  _288
REMARK  119  A    between atoms: _288  and  _289
REMARK  120  A    between atoms: _288  and  _291
REMARK  121  A    between atoms: _291  and  _292
REMARK  122  A    between atoms: _302  and  _304
REMARK  123  A    between atoms: _304  and  _305
REMARK  124  A    between atoms: _307  and  _309
REMARK  125  A    between atoms: _309  and  _310
REMARK  126  A    between atoms: _309  and  _312
REMARK  127  A    between atoms: _312  and  _313
REMARK  128  A    between atoms: _316  and  _318
REMARK  129  A    between atoms: _318  and  _319
REMARK  130  A    between atoms: _318  and  _321
REMARK  131  A    between atoms: _321  and  _322
REMARK  132  A    between atoms: _325  and  _327
REMARK  133  A    between atoms: _327  and  _328
REMARK  134  A    between atoms: _330  and  _332
REMARK  135  A    between atoms: _332  and  _333
REMARK  136  A    between atoms: _332  and  _335
REMARK  137  A    between atoms: _335  and  _336
REMARK  138  A    between atoms: _339  and  _341
REMARK  139  A    between atoms: _341  and  _342
REMARK  140  A    between atoms: _345  and  _347
REMARK  141  A    between atoms: _347  and  _348
REMARK  142  A    between atoms: _347  and  _350
REMARK  143  A    between atoms: _350  and  _351
REMARK  144  A    between atoms: _356  and  _357
REMARK  145  A    between atoms: _359  and  _361
REMARK  146  A    between atoms: _361  and  _362
REMARK  147  A    between atoms: _361  and  _364
REMARK  148  A    between atoms: _364  and  _365
REMARK  149  A    between atoms: _365  and  _366
REMARK  150  A    between atoms: _369  and  _371
REMARK  151  A    between atoms: _371  and  _372
REMARK  152  A    between atoms: _371  and  _374
REMARK  153  A    between atoms: _374  and  _375
REMARK  154  A    between atoms: _378  and  _380
REMARK  155  A    between atoms: _380  and  _381
REMARK  156  A    between atoms: _384  and  _386
REMARK  157  A    between atoms: _386  and  _387
REMARK  158  A    between atoms: _386  and  _389
REMARK  159  A    between atoms: _389  and  _390
REMARK  160  A    between atoms: _390  and  _391
REMARK  161  A    between atoms: _391  and  _392
REMARK  162  A    between atoms: _401  and  _403
REMARK  163  A    between atoms: _403  and  _404
REMARK  164  A    between atoms: _403  and  _406
REMARK  165  A    between atoms: _406  and  _407
REMARK  166  A    between atoms: _417  and  _419
REMARK  167  A    between atoms: _419  and  _420
REMARK  168  A    between atoms: _419  and  _422
REMARK  169  A    between atoms: _422  and  _423
REMARK  170  A    between atoms: _428  and  _429
REMARK  171  A    between atoms: _431  and  _433
REMARK  172  A    between atoms: _433  and  _434
REMARK  173  A    between atoms: _433  and  _436
REMARK  174  A    between atoms: _436  and  _437
REMARK  175  A    between atoms: _442  and  _443
REMARK  176  A    between atoms: _445  and  _447
REMARK  177  A    between atoms: _447  and  _448
REMARK  178  A    between atoms: _447  and  _450
REMARK  179  A    between atoms: _450  and  _451
REMARK  180  A    between atoms: _451  and  _452
REMARK  181  A    between atoms: _452  and  _453
REMARK  182  A    between atoms: _453  and  _454
REMARK  183  A    between atoms: _458  and  _460
REMARK  184  A    between atoms: _460  and  _461
REMARK  185  A    between atoms: _460  and  _463
REMARK  186  A    between atoms: _463  and  _464
REMARK  187  A    between atoms: _467  and  _469
REMARK  188  A    between atoms: _469  and  _470
REMARK  189  A    between atoms: _469  and  _472
REMARK  190  A    between atoms: _475  and  _477
REMARK  191  A    between atoms: _477  and  _478
REMARK  192  A    between atoms: _477  and  _480
REMARK  193  A    between atoms: _480  and  _481
REMARK  194  A    between atoms: _484  and  _486
REMARK  195  A    between atoms: _486  and  _487
REMARK  196  A    between atoms: _486  and  _489
REMARK  197  A    between atoms: _489  and  _490
REMARK  198  A    between atoms: _492  and  _494
REMARK  199  A    between atoms: _494  and  _495
REMARK  200  A    between atoms: _497  and  _499
REMARK  201  A    between atoms: _499  and  _500
REMARK  202  A    between atoms: _499  and  _502
REMARK  203  A    between atoms: _502  and  _503
REMARK  204  A    between atoms: _506  and  _508
REMARK  205  A    between atoms: _508  and  _509
REMARK  206  A    between atoms: _508  and  _511
REMARK  207  A    between atoms: _511  and  _512
REMARK  208  A    between atoms: _515  and  _517
REMARK  209  A    between atoms: _517  and  _518
REMARK  210  A    between atoms: _517  and  _520
REMARK  211  A    between atoms: _520  and  _521
REMARK  212  A    between atoms: _526  and  _528
REMARK  213  A    between atoms: _528  and  _529
REMARK  214  A    between atoms: _528  and  _531
REMARK  215  A    between atoms: _531  and  _532
REMARK  216  A    between atoms: _532  and  _533
REMARK  217  A    between atoms: _533  and  _534
REMARK  218  A    between atoms: _543  and  _545
REMARK  219  A    between atoms: _545  and  _546
REMARK  220  A    between atoms: _545  and  _548
REMARK  221  A    between atoms: _548  and  _549
REMARK  222  A    between atoms: _549  and  _550
REMARK  223  A    between atoms: _550  and  _551
REMARK  224  A    between atoms: _560  and  _562
REMARK  225  A    between atoms: _562  and  _563
REMARK  226  A    between atoms: _562  and  _565
REMARK  227  A    between atoms: _565  and  _566
REMARK  228  A    between atoms: _568  and  _570
REMARK  229  A    between atoms: _570  and  _571
REMARK  230  A    between atoms: _570  and  _573
REMARK  231  A    between atoms: _573  and  _574
REMARK  232  A    between atoms: _574  and  _575
REMARK  233  A    between atoms: _580  and  _582
REMARK  234  A    between atoms: _582  and  _583
REMARK  235  A    between atoms: _582  and  _585
REMARK  236  A    between atoms: _585  and  _586
REMARK  237  A    between atoms: _589  and  _591
REMARK  238  A    between atoms: _591  and  _592
REMARK  239  A    between atoms: _591  and  _594
REMARK  240  A    between atoms: _594  and  _595
REMARK  241  A    between atoms: _598  and  _600
REMARK  242  A    between atoms: _600  and  _601
REMARK  243  A    between atoms: _600  and  _603
REMARK  244  A    between atoms: _606  and  _608
REMARK  245  A    between atoms: _608  and  _609
REMARK  246  A    between atoms: _611  and  _613
REMARK  247  A    between atoms: _613  and  _614
REMARK  248  A    between atoms: _617  and  _619
REMARK  249  A    between atoms: _619  and  _620
REMARK  250  A    between atoms: _619  and  _622
REMARK                            x       y       z     vdW  Elec       q    Type
REMARK                         _______ _______ _______ _____ _____    ______ ____
ROOT
ATOM      1  CG  LYS A   1      17.331  11.582  35.178  0.00  0.00    -0.000 C 
ENDROOT
BRANCH   1   2
ATOM      2  CB  LYS A   1      16.956  10.922  36.504  0.00  0.00    +0.025 C 
BRANCH   2   3
ATOM      3  CA  LYS A   1      17.741  11.457  37.708  0.00  0.00    +0.133 C 
BRANCH   3   4
ATOM      4  N   LYS A   1      17.492  12.884  37.901  0.00  0.00    -0.239 NA
ATOM      5  H   LYS A   1      18.288  13.544  37.794  0.00  0.00    +0.142 HD
ENDBRANCH   3   4
BRANCH   3   6
ATOM      6  C   LYS A   1      19.226  11.221  37.455  0.00  0.00    +0.224 C 
ATOM      7  O   LYS A   1      19.957  12.147  37.111  0.00  0.00    -0.287 OA
ENDBRANCH   3   6
ENDBRANCH   2   3
ENDBRANCH   1   2
BRANCH   1   8
ATOM      8  CD  LYS A   1      16.481  11.057  34.025  0.00  0.00    -0.024 C 
BRANCH   8   9
ATOM      9  CE  LYS A   1      16.699  11.866  32.757  0.00  0.00    -0.086 C 
BRANCH   9  10
ATOM     10  NZ  LYS A   1      16.256  13.287  32.904  0.00  0.00    +0.380 N 
ATOM     11  HZ1 LYS A   1      16.794  13.739  33.671  0.00  0.00    -0.089 HD
ATOM     12  HZ2 LYS A   1      15.241  13.311  33.130  0.00  0.00    -0.089 HD
ATOM     13  HZ3 LYS A   1      16.426  13.796  32.013  0.00  0.00    -0.089 HD
ENDBRANCH   9  10
ENDBRANCH   8   9
ENDBRANCH   1   8
TORSDOF 7
REMARK  Name = ../refined-set-2016/3lpi/3lpi_pocket.pdb
REMARK  250 active torsions:
REMARK  status: ('A' for Active; 'I' for Inactive)
REMARK    1  A    between atoms: _1  and  _3
REMARK    2  A    between atoms: _3  and  _4
REMARK    3  A    between atoms: _3  and  _6
REMARK    4  A    between atoms: _6  and  _7
REMARK    5  A    between atoms: _7  and  _8
REMARK    6  A    between atoms: _8  and  _9
REMARK    7  A    between atoms: _9  and  _10
REMARK    8  A    between atoms: _14  and  _16
REMARK    9  A    between atoms: _16  and  _17
REMARK   10  A    between atoms: _16  and  _19
REMARK   11  A    between atoms: _19  and  _20
REMARK   12  A    between atoms: _22  and  _24
REMARK   13  A    between atoms: _24  and  _25
REMARK   14  A    between atoms: _27  and  _29
REMARK   15  A    between atoms: _29  and  _30
REMARK   16  A    between atoms: _29  and  _32
REMARK   17  A    between atoms: _32  and  _33
REMARK   18  A    between atoms: _33  and  _34
REMARK   19  A    between atoms: _39  and  _41
REMARK   20  A    between atoms: _41  and  _42
REMARK   21  A    between atoms: _44  and  _46
REMARK   22  A    between atoms: _46  and  _47
REMARK   23  A    between atoms: _46  and  _49
REMARK   24  A    between atoms: _49  and  _50
REMARK   25  A    between atoms: _55  and  _56
REMARK   26  A    between atoms: _58  and  _60
REMARK   27  A    between atoms: _60  and  _61
REMARK   28  A    between atoms: _60  and  _63
REMARK   29  A    between atoms: _63  and  _64
REMARK   30  A    between atoms: _67  and  _69
REMARK   31  A    between atoms: _69  and  _70
REMARK   32  A    between atoms: _69  and  _72
REMARK   33  A    between atoms: _75  and  _77
REMARK   34  A    between atoms: _77  and  _78
REMARK   35  A    between atoms: _77  and  _80
REMARK   36  A    between atoms: _80  and  _81
REMARK   37  A    between atoms: _84  and  _86
REMARK   38  A    between atoms: _86  and  _87
REMARK   39  A    between atoms: _86  and  _89
REMARK   40  A    between atoms: _89  and  _90
REMARK   41  A    between atoms: _93  and  _95
REMARK   42  A    between atoms: _95  and  _96
REMARK   43  A    between atoms: _98  and  _100
REMARK   44  A    between atoms: _100  and  _101
REMARK   45  A    between atoms: _100  and  _103
REMARK   46  A    between atoms: _103  and  _104
REMARK   47  A    between atoms: _106  and  _108
REMARK   48  A    between atoms: _108  and  _109
REMARK   49  A    between atoms: _108  and  _111
REMARK   50  A    between atoms: _111  and  _112
REMARK   51  A    between atoms: _114  and  _116
REMARK   52  A    between atoms: _116  and  _117
REMARK   53  A    between atoms: _116  and  _119
REMARK   54  A    between atoms: _119  and  _120
REMARK   55  A    between atoms: _125  and  _127
REMARK   56  A    between atoms: _127  and  _128
REMARK   57  A    between atoms: _127  and  _130
REMARK   58  A    between atoms: _130  and  _131
REMARK   59  A    between atoms: _136  and  _137
REMARK   60  A    between atoms: _139  and  _141
REMARK   61  A    between atoms: _141  and  _142
REMARK   62  A    between atoms: _141  and  _144
REMARK   63  A    between atoms: _148  and  _149
REMARK   64  A    between atoms: _154  and  _156
REMARK   65  A    between atoms: _156  and  _157
REMARK   66  A    between atoms: _156  and  _159
REMARK   67  A    between atoms: _159  and  _160
REMARK   68  A    between atoms: _165  and  _166
REMARK   69  A    between atoms: _168  and  _170
REMARK   70  A    between atoms: _170  and  _171
REMARK   71  A    between atoms: _170  and  _173
REMARK   72  A    between atoms: _173  and  _174
REMARK   73  A    between atoms: _177  and  _179
REMARK   74  A    between atoms: _179  and  _180
REMARK   75  A    between atoms: _179  and  _182
REMARK   76  A    between atoms: _182  and  _183
REMARK   77  A    between atoms: _183  and  _184
REMARK   78  A    between atoms: _189  and  _191
REMARK   79  A    between atoms: _191  and  _192
REMARK   80  A    between atoms: _194  and  _196
REMARK   81  A    between atoms: _196  and  _197
REMARK   82  A    between atoms: _196  and  _199
REMARK   83  A    between atoms: _199  and  _200
REMARK   84  A    between atoms: _200  and  _201
REMARK   85  A    between atoms: _201  and  _202
REMARK   86  A    between atoms: _202  and  _203
REMARK   87  A    between atoms: _207  and  _209
REMARK   88  A    between atoms: _209  and  _210
REMARK   89  A    between atoms: _209  and  _212
REMARK   90  A    between atoms: _212  and  _213
REMARK   91  A    between atoms: _223  and  _225
REMARK   92  A    between atoms: _225  and  _226
REMARK   93  A    between atoms: _225  and  _228
REMARK   94  A    between atoms: _228  and  _229
REMARK   95  A    between atoms: _232  and  _234
REMARK   96  A    between atoms: _234  and  _235
REMARK   97  A    between atoms: _234  and  _237
REMARK   98  A    between atoms: _237  and  _238
REMARK   99  A    between atoms: _238  and  _239
REMARK  100  A    between atoms: _239  and  _240
REMARK  101  A    between atoms: _240  and  _241
REMARK  102  A    between atoms: _245  and  _247
REMARK  103  A    between atoms: _247  and  _248
REMARK  104  A    between atoms: _247  and  _250
REMARK  105  A    between atoms: _250  and  _251
REMARK  106  A    between atoms: _257  and  _259
REMARK  107  A    between atoms: _259  and  _260
REMARK  108  A    between atoms: _259  and  _262
REMARK  109  A    between atoms: _262  and  _263
REMARK  110  A    between atoms: _269  and  _271
REMARK  111  A    between atoms: _271  and  _272
REMARK  112  A    between atoms: _271  and  _274
REMARK  113  A    between atoms: _274  and  _275
REMARK  114  A    between atoms: _278  and  _280
REMARK  115  A    between atoms: _280  and  _281
REMARK  116  A    between atoms: _280  and  _283
REMARK  117  A    between atoms: _283  and  _284
REMARK  118  A    between atoms: _286  and  _288
REMARK  119  A    between atoms: _288  and  _289
REMARK  120  A    between atoms: _288  and  _291
REMARK  121  A    between atoms: _291  and  _292
REMARK  122  A    between atoms: _302  and  _304
REMARK  123  A    between atoms: _304  and  _305
REMARK  124  A    between atoms: _307  and  _309
REMARK  125  A    between atoms: _309  and  _310
REMARK  126  A    between atoms: _309  and  _312
REMARK  127  A    between atoms: _312  and  _313
REMARK  128  A    between atoms: _316  and  _318
REMARK  129  A    between atoms: _318  and  _319
REMARK  130  A    between atoms: _318  and  _321
REMARK  131  A    between atoms: _321  and  _322
REMARK  132  A    between atoms: _325  and  _327
REMARK  133  A    between atoms: _327  and  _328
REMARK  134  A    between atoms: _330  and  _332
REMARK  135  A    between atoms: _332  and  _333
REMARK  136  A    between atoms: _332  and  _335
REMARK  137  A    between atoms: _335  and  _336
REMARK  138  A    between atoms: _339  and  _341
REMARK  139  A    between atoms: _341  and  _342
REMARK  140  A    between atoms: _345  and  _347
REMARK  141  A    between atoms: _347  and  _348
REMARK  142  A    between atoms: _347  and  _350
REMARK  143  A    between atoms: _350  and  _351
REMARK  144  A    between atoms: _356  and  _357
REMARK  145  A    between atoms: _359  and  _361
REMARK  146  A    between atoms: _361  and  _362
REMARK  147  A    between atoms: _361  and  _364
REMARK  148  A    between atoms: _364  and  _365
REMARK  149  A    between atoms: _365  and  _366
REMARK  150  A    between atoms: _369  and  _371
REMARK  151  A    between atoms: _371  and  _372
REMARK  152  A    between atoms: _371  and  _374
REMARK  153  A    between atoms: _374  and  _375
REMARK  154  A    between atoms: _378  and  _380
REMARK  155  A    between atoms: _380  and  _381
REMARK  156  A    between atoms: _384  and  _386
REMARK  157  A    between atoms: _386  and  _387
REMARK  158  A    between atoms: _386  and  _389
REMARK  159  A    between atoms: _389  and  _390
REMARK  160  A    between atoms: _390  and  _391
REMARK  161  A    between atoms: _391  and  _392
REMARK  162  A    between atoms: _401  and  _403
REMARK  163  A    between atoms: _403  and  _404
REMARK  164  A    between atoms: _403  and  _406
REMARK  165  A    between atoms: _406  and  _407
REMARK  166  A    between atoms: _417  and  _419
REMARK  167  A    between atoms: _419  and  _420
REMARK  168  A    between atoms: _419  and  _422
REMARK  169  A    between atoms: _422  and  _423
REMARK  170  A    between atoms: _428  and  _429
REMARK  171  A    between atoms: _431  and  _433
REMARK  172  A    between atoms: _433  and  _434
REMARK  173  A    between atoms: _433  and  _436
REMARK  174  A    between atoms: _436  and  _437
REMARK  175  A    between atoms: _442  and  _443
REMARK  176  A    between atoms: _445  and  _447
REMARK  177  A    between atoms: _447  and  _448
REMARK  178  A    between atoms: _447  and  _450
REMARK  179  A    between atoms: _450  and  _451
REMARK  180  A    between atoms: _451  and  _452
REMARK  181  A    between atoms: _452  and  _453
REMARK  182  A    between atoms: _453  and  _454
REMARK  183  A    between atoms: _458  and  _460
REMARK  184  A    between atoms: _460  and  _461
REMARK  185  A    between atoms: _460  and  _463
REMARK  186  A    between atoms: _463  and  _464
REMARK  187  A    between atoms: _467  and  _469
REMARK  188  A    between atoms: _469  and  _470
REMARK  189  A    between atoms: _469  and  _472
REMARK  190  A    between atoms: _475  and  _477
REMARK  191  A    between atoms: _477  and  _478
REMARK  192  A    between atoms: _477  and  _480
REMARK  193  A    between atoms: _480  and  _481
REMARK  194  A    between atoms: _484  and  _486
REMARK  195  A    between atoms: _486  and  _487
REMARK  196  A    between atoms: _486  and  _489
REMARK  197  A    between atoms: _489  and  _490
REMARK  198  A    between atoms: _492  and  _494
REMARK  199  A    between atoms: _494  and  _495
REMARK  200  A    between atoms: _497  and  _499
REMARK  201  A    between atoms: _499  and  _500
REMARK  202  A    between atoms: _499  and  _502
REMARK  203  A    between atoms: _502  and  _503
REMARK  204  A    between atoms: _506  and  _508
REMARK  205  A    between atoms: _508  and  _509
REMARK  206  A    between atoms: _508  and  _511
REMARK  207  A    between atoms: _511  and  _512
REMARK  208  A    between atoms: _515  and  _517
REMARK  209  A    between atoms: _517  and  _518
REMARK  210  A    between atoms: _517  and  _520
REMARK  211  A    between atoms: _520  and  _521
REMARK  212  A    between atoms: _526  and  _528
REMARK  213  A    between atoms: _528  and  _529
REMARK  214  A    between atoms: _528  and  _531
REMARK  215  A    between atoms: _531  and  _532
REMARK  216  A    between atoms: _532  and  _533
REMARK  217  A    between atoms: _533  and  _534
REMARK  218  A    between atoms: _543  and  _545
REMARK  219  A    between atoms: _545  and  _546
REMARK  220  A    between atoms: _545  and  _548
REMARK  221  A    between atoms: _548  and  _549
REMARK  222  A    between atoms: _549  and  _550
REMARK  223  A    between atoms: _550  and  _551
REMARK  224  A    between atoms: _560  and  _562
REMARK  225  A    between atoms: _562  and  _563
REMARK  226  A    between atoms: _562  and  _565
REMARK  227  A    between atoms: _565  and  _566
REMARK  228  A    between atoms: _568  and  _570
REMARK  229  A    between atoms: _570  and  _571
REMARK  230  A    between atoms: _570  and  _573
REMARK  231  A    between atoms: _573  and  _574
REMARK  232  A    between atoms: _574  and  _575
REMARK  233  A    between atoms: _580  and  _582
REMARK  234  A    between atoms: _582  and  _583
REMARK  235  A    between atoms: _582  and  _585
REMARK  236  A    between atoms: _585  and  _586
REMARK  237  A    between atoms: _589  and  _591
REMARK  238  A    between atoms: _591  and  _592
REMARK  239  A    between atoms: _591  and  _594
REMARK  240  A    between atoms: _594  and  _595
REMARK  241  A    between atoms: _598  and  _600
REMARK  242  A    between atoms: _600  and  _601
REMARK  243  A    between atoms: _600  and  _603
REMARK  244  A    between atoms: _606  and  _608
REMARK  245  A    between atoms: _608  and  _609
REMARK  246  A    between atoms: _611  and  _613
REMARK  247  A    between atoms: _613  and  _614
REMARK  248  A    between atoms: _617  and  _619
REMARK  249  A    between atoms: _619  and  _620
REMARK  250  A    between atoms: _619  and  _622
REMARK                            x       y       z     vdW  Elec       q    Type
REMARK                         _______ _______ _______ _____ _____    ______ ____
ROOT
ATOM      1  C   SER A   4      27.366   6.193  25.495  0.00  0.00    +0.243 C 
ATOM      2  N   GLY A   5      26.177   6.760  25.311  0.00  0.00    -0.295 N 
ATOM      3  H   GLY A   5      25.405   6.564  25.980  0.00  0.00    +0.150 HD
ATOM      4  O   SER A   4      28.325   6.381  24.745  0.00  0.00    -0.273 OA
ENDROOT
BRANCH   2   5
ATOM      5  CA  GLY A   5      25.943   7.652  24.185  0.00  0.00    +0.176 C 
BRANCH   5   6
ATOM      6  C   GLY A   5      26.304   9.097  24.481  0.00  0.00    +0.243 C 
ATOM      7  N   THR A   6      26.988   9.311  25.599  0.00  0.00    -0.295 N 
ATOM      8  H   THR A   6      27.231   8.499  26.202  0.00  0.00    +0.150 HD
ATOM      9  O   GLY A   5      25.963  10.001  23.718  0.00  0.00    -0.273 OA
BRANCH   7  10
ATOM     10  CA  THR A   6      27.411  10.645  26.012  0.00  0.00    +0.176 C 
BRANCH  10  11
ATOM     11  C   THR A   6      28.868  10.568  26.477  0.00  0.00    +0.243 C 
ATOM     12  O   THR A   6      29.239   9.688  27.258  0.00  0.00    -0.273 OA
ATOM     13  N   THR A   7      29.693  11.480  25.980  0.00  0.00    -0.295 N 
ATOM     14  H   THR A   7      29.322  12.202  25.329  0.00  0.00    +0.150 HD
BRANCH  13  15
ATOM     15  CA  THR A   7      31.110  11.491  26.328  0.00  0.00    +0.176 C 
BRANCH  15  16
ATOM     16  C   THR A   7      31.408  11.753  27.803  0.00  0.00    +0.243 C 
ATOM     17  O   THR A   7      31.967  10.908  28.498  0.00  0.00    -0.273 OA
ATOM     18  N   ASN A   8      31.017  12.934  28.265  0.00  0.00    -0.298 N 
ATOM     19  H   ASN A   8      30.489  13.568  27.632  0.00  0.00    +0.150 HD
BRANCH  18  20
ATOM     20  CA  ASN A   8      31.298  13.377  29.622  0.00  0.00    +0.146 C 
BRANCH  20  21
ATOM     21  C   ASN A   8      30.466  12.862  30.773  0.00  0.00    +0.227 C 
ATOM     22  O   ASN A   8      29.413  12.244  30.603  0.00  0.00    -0.286 OA
ENDBRANCH  20  21
BRANCH  20  23
ATOM     23  CB  ASN A   8      31.227  14.907  29.694  0.00  0.00    +0.112 C 
BRANCH  23  24
ATOM     24  CG  ASN A   8      32.234  15.594  28.793  0.00  0.00    +0.222 C 
ATOM     25  ND2 ASN A   8      32.121  16.910  28.685  0.00  0.00    -0.329 N 
ATOM     26 HD21 ASN A   8      31.367  17.411  29.197  0.00  0.00    +0.145 HD
ATOM     27 HD22 ASN A   8      32.786  17.442  28.088  0.00  0.00    +0.145 HD
ATOM     28  OD1 ASN A   8      33.105  14.957  28.210  0.00  0.00    -0.275 OA
ENDBRANCH  23  24
ENDBRANCH  20  23
ENDBRANCH  18  20
ENDBRANCH  15  16
BRANCH  15  29
ATOM     29  CB  THR A   7      31.874  12.567  25.525  0.00  0.00    +0.137 C 
ATOM     30  CG2 THR A   7      33.347  12.590  25.927  0.00  0.00    +0.034 C 
BRANCH  29  31
ATOM     31  OG1 THR A   7      31.766  12.291  24.123  0.00  0.00    -0.382 OA
ATOM     32  HG1 THR A   7      32.155  11.401  23.932  0.00  0.00    +0.210 HD
ENDBRANCH  29  31
ENDBRANCH  15  29
ENDBRANCH  13  15
ENDBRANCH  10  11
BRANCH  10  33
ATOM     33  CB  THR A   6      26.525  11.174  27.158  0.00  0.00    +0.137 C 
ATOM     34  CG2 THR A   6      27.043  12.506  27.666  0.00  0.00    +0.034 C 
BRANCH  33  35
ATOM     35  OG1 THR A   6      25.182  11.335  26.683  0.00  0.00    -0.382 OA
ATOM     36  HG1 THR A   6      24.612  11.675  27.418  0.00  0.00    +0.210 HD
ENDBRANCH  33  35
ENDBRANCH  10  33
ENDBRANCH   7  10
ENDBRANCH   5   6
ENDBRANCH   2   5
BRANCH   1  37
ATOM     37  CA  SER A   4      27.491   5.271  26.703  0.00  0.00    +0.178 C 
BRANCH  37  40
ATOM     38  C   ASP A   3      26.179   6.518  28.340  0.00  0.00    +0.241 C 
ATOM     39  O   ASP A   3      26.978   7.456  28.337  0.00  0.00    -0.273 OA
ATOM     40  N   SER A   4      26.337   5.434  27.587  0.00  0.00    -0.295 N 
ATOM     41  H   SER A   4      25.621   4.681  27.627  0.00  0.00    +0.150 HD
BRANCH  38  42
ATOM     42  CA  ASP A   3      24.918   6.561  29.212  0.00  0.00    +0.160 C 
BRANCH  42  45
ATOM     43  C   VAL A   2      24.282   5.414  31.269  0.00  0.00    +0.241 C 
ATOM     44  O   VAL A   2      23.381   4.780  30.710  0.00  0.00    -0.273 OA
ATOM     45  N   ASP A   3      25.100   6.246  30.624  0.00  0.00    -0.297 N 
ATOM     46  H   ASP A   3      25.889   6.682  31.142  0.00  0.00    +0.150 HD
BRANCH  43  47
ATOM     47  CA  VAL A   2      24.513   5.258  32.766  0.00  0.00    +0.148 C 
BRANCH  47  50
ATOM     48  C   ILE A   1      23.169   6.978  33.896  0.00  0.00    +0.238 C 
ATOM     49  O   ILE A   1      24.124   7.737  34.040  0.00  0.00    -0.274 OA
ATOM     50  N   VAL A   2      23.266   5.777  33.331  0.00  0.00    -0.297 N 
ATOM     51  H   VAL A   2      22.416   5.179  33.289  0.00  0.00    +0.150 HD
BRANCH  48  52
ATOM     52  CA  ILE A   1      21.773   7.369  34.377  0.00  0.00    +0.145 C 
BRANCH  52  53
ATOM     53  CB  ILE A   1      20.939   7.737  33.129  0.00  0.00    +0.025 C 
ATOM     54  CG2 ILE A   1      19.532   8.165  33.538  0.00  0.00    +0.002 C 
BRANCH  53  55
ATOM     55  CG1 ILE A   1      21.628   8.878  32.371  0.00  0.00    +0.002 C 
ATOM     56  CD1 ILE A   1      20.961   9.225  31.043  0.00  0.00    +0.000 C 
ENDBRANCH  53  55
ENDBRANCH  52  53
BRANCH  52  57
ATOM     57  N   ILE A   1      21.772   8.463  35.339  0.00  0.00    -0.238 NA
ATOM     58  H   ILE A   1      22.369   9.299  35.174  0.00  0.00    +0.142 HD
ENDBRANCH  52  57
ENDBRANCH  48  52
ENDBRANCH  47  50
BRANCH  47  59
ATOM     59  CB  VAL A   2      24.707   3.770  33.108  0.00  0.00    +0.027 C 
ATOM     60  CG2 VAL A   2      24.684   3.581  34.635  0.00  0.00    +0.002 C 
ATOM     61  CG1 VAL A   2      26.020   3.273  32.516  0.00  0.00    +0.002 C 
ENDBRANCH  47  59
ENDBRANCH  43  47
ENDBRANCH  42  45
BRANCH  42  62
ATOM     62  CB  ASP A   3      24.280   7.949  29.140  0.00  0.00    +0.143 C 
BRANCH  62  63
ATOM     63  CG  ASP A   3      23.883   8.349  27.742  0.00  0.00    +0.367 C 
ATOM     64  OD2 ASP A   3      23.477   9.517  27.578  0.00  0.00    -0.246 OA
ATOM     65  OD1 ASP A   3      23.961   7.510  26.818  0.00  0.00    -0.246 OA
ENDBRANCH  62  63
ENDBRANCH  42  62
ENDBRANCH  38  42
ENDBRANCH  37  40
BRANCH  37  66
ATOM     66  CB  SER A   4      27.584   3.824  26.218  0.00  0.00    +0.166 C 
BRANCH  66  67
ATOM     67  OG  SER A   4      26.438   3.466  25.460  0.00  0.00    -0.380 OA
ATOM     68  H   SER A   4      26.366   4.061  24.672  0.00  0.00    +0.211 HD
ENDBRANCH  66  67
ENDBRANCH  37  66
ENDBRANCH   1  37
TORSDOF 29
REMARK  Name = ../refined-set-2016/3lpi/3lpi_pocket.pdb
REMARK  250 active torsions:
REMARK  status: ('A' for Active; 'I' for Inactive)
REMARK    1  A    between atoms: _1  and  _3
REMARK    2  A    between atoms: _3  and  _4
REMARK    3  A    between atoms: _3  and  _6
REMARK    4  A    between atoms: _6  and  _7
REMARK    5  A    between atoms: _7  and  _8
REMARK    6  A    between atoms: _8  and  _9
REMARK    7  A    between atoms: _9  and  _10
REMARK    8  A    between atoms: _14  and  _16
REMARK    9  A    between atoms: _16  and  _17
REMARK   10  A    between atoms: _16  and  _19
REMARK   11  A    between atoms: _19  and  _20
REMARK   12  A    between atoms: _22  and  _24
REMARK   13  A    between atoms: _24  and  _25
REMARK   14  A    between atoms: _27  and  _29
REMARK   15  A    between atoms: _29  and  _30
REMARK   16  A    between atoms: _29  and  _32
REMARK   17  A    between atoms: _32  and  _33
REMARK   18  A    between atoms: _33  and  _34
REMARK   19  A    between atoms: _39  and  _41
REMARK   20  A    between atoms: _41  and  _42
REMARK   21  A    between atoms: _44  and  _46
REMARK   22  A    between atoms: _46  and  _47
REMARK   23  A    between atoms: _46  and  _49
REMARK   24  A    between atoms: _49  and  _50
REMARK   25  A    between atoms: _55  and  _56
REMARK   26  A    between atoms: _58  and  _60
REMARK   27  A    between atoms: _60  and  _61
REMARK   28  A    between atoms: _60  and  _63
REMARK   29  A    between atoms: _63  and  _64
REMARK   30  A    between atoms: _67  and  _69
REMARK   31  A    between atoms: _69  and  _70
REMARK   32  A    between atoms: _69  and  _72
REMARK   33  A    between atoms: _75  and  _77
REMARK   34  A    between atoms: _77  and  _78
REMARK   35  A    between atoms: _77  and  _80
REMARK   36  A    between atoms: _80  and  _81
REMARK   37  A    between atoms: _84  and  _86
REMARK   38  A    between atoms: _86  and  _87
REMARK   39  A    between atoms: _86  and  _89
REMARK   40  A    between atoms: _89  and  _90
REMARK   41  A    between atoms: _93  and  _95
REMARK   42  A    between atoms: _95  and  _96
REMARK   43  A    between atoms: _98  and  _100
REMARK   44  A    between atoms: _100  and  _101
REMARK   45  A    between atoms: _100  and  _103
REMARK   46  A    between atoms: _103  and  _104
REMARK   47  A    between atoms: _106  and  _108
REMARK   48  A    between atoms: _108  and  _109
REMARK   49  A    between atoms: _108  and  _111
REMARK   50  A    between atoms: _111  and  _112
REMARK   51  A    between atoms: _114  and  _116
REMARK   52  A    between atoms: _116  and  _117
REMARK   53  A    between atoms: _116  and  _119
REMARK   54  A    between atoms: _119  and  _120
REMARK   55  A    between atoms: _125  and  _127
REMARK   56  A    between atoms: _127  and  _128
REMARK   57  A    between atoms: _127  and  _130
REMARK   58  A    between atoms: _130  and  _131
REMARK   59  A    between atoms: _136  and  _137
REMARK   60  A    between atoms: _139  and  _141
REMARK   61  A    between atoms: _141  and  _142
REMARK   62  A    between atoms: _141  and  _144
REMARK   63  A    between atoms: _148  and  _149
REMARK   64  A    between atoms: _154  and  _156
REMARK   65  A    between atoms: _156  and  _157
REMARK   66  A    between atoms: _156  and  _159
REMARK   67  A    between atoms: _159  and  _160
REMARK   68  A    between atoms: _165  and  _166
REMARK   69  A    between atoms: _168  and  _170
REMARK   70  A    between atoms: _170  and  _171
REMARK   71  A    between atoms: _170  and  _173
REMARK   72  A    between atoms: _173  and  _174
REMARK   73  A    between atoms: _177  and  _179
REMARK   74  A    between atoms: _179  and  _180
REMARK   75  A    between atoms: _179  and  _182
REMARK   76  A    between atoms: _182  and  _183
REMARK   77  A    between atoms: _183  and  _184
REMARK   78  A    between atoms: _189  and  _191
REMARK   79  A    between atoms: _191  and  _192
REMARK   80  A    between atoms: _194  and  _196
REMARK   81  A    between atoms: _196  and  _197
REMARK   82  A    between atoms: _196  and  _199
REMARK   83  A    between atoms: _199  and  _200
REMARK   84  A    between atoms: _200  and  _201
REMARK   85  A    between atoms: _201  and  _202
REMARK   86  A    between atoms: _202  and  _203
REMARK   87  A    between atoms: _207  and  _209
REMARK   88  A    between atoms: _209  and  _210
REMARK   89  A    between atoms: _209  and  _212
REMARK   90  A    between atoms: _212  and  _213
REMARK   91  A    between atoms: _223  and  _225
REMARK   92  A    between atoms: _225  and  _226
REMARK   93  A    between atoms: _225  and  _228
REMARK   94  A    between atoms: _228  and  _229
REMARK   95  A    between atoms: _232  and  _234
REMARK   96  A    between atoms: _234  and  _235
REMARK   97  A    between atoms: _234  and  _237
REMARK   98  A    between atoms: _237  and  _238
REMARK   99  A    between atoms: _238  and  _239
REMARK  100  A    between atoms: _239  and  _240
REMARK  101  A    between atoms: _240  and  _241
REMARK  102  A    between atoms: _245  and  _247
REMARK  103  A    between atoms: _247  and  _248
REMARK  104  A    between atoms: _247  and  _250
REMARK  105  A    between atoms: _250  and  _251
REMARK  106  A    between atoms: _257  and  _259
REMARK  107  A    between atoms: _259  and  _260
REMARK  108  A    between atoms: _259  and  _262
REMARK  109  A    between atoms: _262  and  _263
REMARK  110  A    between atoms: _269  and  _271
REMARK  111  A    between atoms: _271  and  _272
REMARK  112  A    between atoms: _271  and  _274
REMARK  113  A    between atoms: _274  and  _275
REMARK  114  A    between atoms: _278  and  _280
REMARK  115  A    between atoms: _280  and  _281
REMARK  116  A    between atoms: _280  and  _283
REMARK  117  A    between atoms: _283  and  _284
REMARK  118  A    between atoms: _286  and  _288
REMARK  119  A    between atoms: _288  and  _289
REMARK  120  A    between atoms: _288  and  _291
REMARK  121  A    between atoms: _291  and  _292
REMARK  122  A    between atoms: _302  and  _304
REMARK  123  A    between atoms: _304  and  _305
REMARK  124  A    between atoms: _307  and  _309
REMARK  125  A    between atoms: _309  and  _310
REMARK  126  A    between atoms: _309  and  _312
REMARK  127  A    between atoms: _312  and  _313
REMARK  128  A    between atoms: _316  and  _318
REMARK  129  A    between atoms: _318  and  _319
REMARK  130  A    between atoms: _318  and  _321
REMARK  131  A    between atoms: _321  and  _322
REMARK  132  A    between atoms: _325  and  _327
REMARK  133  A    between atoms: _327  and  _328
REMARK  134  A    between atoms: _330  and  _332
REMARK  135  A    between atoms: _332  and  _333
REMARK  136  A    between atoms: _332  and  _335
REMARK  137  A    between atoms: _335  and  _336
REMARK  138  A    between atoms: _339  and  _341
REMARK  139  A    between atoms: _341  and  _342
REMARK  140  A    between atoms: _345  and  _347
REMARK  141  A    between atoms: _347  and  _348
REMARK  142  A    between atoms: _347  and  _350
REMARK  143  A    between atoms: _350  and  _351
REMARK  144  A    between atoms: _356  and  _357
REMARK  145  A    between atoms: _359  and  _361
REMARK  146  A    between atoms: _361  and  _362
REMARK  147  A    between atoms: _361  and  _364
REMARK  148  A    between atoms: _364  and  _365
REMARK  149  A    between atoms: _365  and  _366
REMARK  150  A    between atoms: _369  and  _371
REMARK  151  A    between atoms: _371  and  _372
REMARK  152  A    between atoms: _371  and  _374
REMARK  153  A    between atoms: _374  and  _375
REMARK  154  A    between atoms: _378  and  _380
REMARK  155  A    between atoms: _380  and  _381
REMARK  156  A    between atoms: _384  and  _386
REMARK  157  A    between atoms: _386  and  _387
REMARK  158  A    between atoms: _386  and  _389
REMARK  159  A    between atoms: _389  and  _390
REMARK  160  A    between atoms: _390  and  _391
REMARK  161  A    between atoms: _391  and  _392
REMARK  162  A    between atoms: _401  and  _403
REMARK  163  A    between atoms: _403  and  _404
REMARK  164  A    between atoms: _403  and  _406
REMARK  165  A    between atoms: _406  and  _407
REMARK  166  A    between atoms: _417  and  _419
REMARK  167  A    between atoms: _419  and  _420
REMARK  168  A    between atoms: _419  and  _422
REMARK  169  A    between atoms: _422  and  _423
REMARK  170  A    between atoms: _428  and  _429
REMARK  171  A    between atoms: _431  and  _433
REMARK  172  A    between atoms: _433  and  _434
REMARK  173  A    between atoms: _433  and  _436
REMARK  174  A    between atoms: _436  and  _437
REMARK  175  A    between atoms: _442  and  _443
REMARK  176  A    between atoms: _445  and  _447
REMARK  177  A    between atoms: _447  and  _448
REMARK  178  A    between atoms: _447  and  _450
REMARK  179  A    between atoms: _450  and  _451
REMARK  180  A    between atoms: _451  and  _452
REMARK  181  A    between atoms: _452  and  _453
REMARK  182  A    between atoms: _453  and  _454
REMARK  183  A    between atoms: _458  and  _460
REMARK  184  A    between atoms: _460  and  _461
REMARK  185  A    between atoms: _460  and  _463
REMARK  186  A    between atoms: _463  and  _464
REMARK  187  A    between atoms: _467  and  _469
REMARK  188  A    between atoms: _469  and  _470
REMARK  189  A    between atoms: _469  and  _472
REMARK  190  A    between atoms: _475  and  _477
REMARK  191  A    between atoms: _477  and  _478
REMARK  192  A    between atoms: _477  and  _480
REMARK  193  A    between atoms: _480  and  _481
REMARK  194  A    between atoms: _484  and  _486
REMARK  195  A    between atoms: _486  and  _487
REMARK  196  A    between atoms: _486  and  _489
REMARK  197  A    between atoms: _489  and  _490
REMARK  198  A    between atoms: _492  and  _494
REMARK  199  A    between atoms: _494  and  _495
REMARK  200  A    between atoms: _497  and  _499
REMARK  201  A    between atoms: _499  and  _500
REMARK  202  A    between atoms: _499  and  _502
REMARK  203  A    between atoms: _502  and  _503
REMARK  204  A    between atoms: _506  and  _508
REMARK  205  A    between atoms: _508  and  _509
REMARK  206  A    between atoms: _508  and  _511
REMARK  207  A    between atoms: _511  and  _512
REMARK  208  A    between atoms: _515  and  _517
REMARK  209  A    between atoms: _517  and  _518
REMARK  210  A    between atoms: _517  and  _520
REMARK  211  A    between atoms: _520  and  _521
REMARK  212  A    between atoms: _526  and  _528
REMARK  213  A    between atoms: _528  and  _529
REMARK  214  A    between atoms: _528  and  _531
REMARK  215  A    between atoms: _531  and  _532
REMARK  216  A    between atoms: _532  and  _533
REMARK  217  A    between atoms: _533  and  _534
REMARK  218  A    between atoms: _543  and  _545
REMARK  219  A    between atoms: _545  and  _546
REMARK  220  A    between atoms: _545  and  _548
REMARK  221  A    between atoms: _548  and  _549
REMARK  222  A    between atoms: _549  and  _550
REMARK  223  A    between atoms: _550  and  _551
REMARK  224  A    between atoms: _560  and  _562
REMARK  225  A    between atoms: _562  and  _563
REMARK  226  A    between atoms: _562  and  _565
REMARK  227  A    between atoms: _565  and  _566
REMARK  228  A    between atoms: _568  and  _570
REMARK  229  A    between atoms: _570  and  _571
REMARK  230  A    between atoms: _570  and  _573
REMARK  231  A    between atoms: _573  and  _574
REMARK  232  A    between atoms: _574  and  _575
REMARK  233  A    between atoms: _580  and  _582
REMARK  234  A    between atoms: _582  and  _583
REMARK  235  A    between atoms: _582  and  _585
REMARK  236  A    between atoms: _585  and  _586
REMARK  237  A    between atoms: _589  and  _591
REMARK  238  A    between atoms: _591  and  _592
REMARK  239  A    between atoms: _591  and  _594
REMARK  240  A    between atoms: _594  and  _595
REMARK  241  A    between atoms: _598  and  _600
REMARK  242  A    between atoms: _600  and  _601
REMARK  243  A    between atoms: _600  and  _603
REMARK  244  A    between atoms: _606  and  _608
REMARK  245  A    between atoms: _608  and  _609
REMARK  246  A    between atoms: _611  and  _613
REMARK  247  A    between atoms: _613  and  _614
REMARK  248  A    between atoms: _617  and  _619
REMARK  249  A    between atoms: _619  and  _620
REMARK  250  A    between atoms: _619  and  _622
REMARK                            x       y       z     vdW  Elec       q    Type
REMARK                         _______ _______ _______ _____ _____    ______ ____
ROOT
ATOM      1  NE  ARG A   1      25.648  16.897  29.726  0.00  0.00    -0.265 N 
ATOM      2  HE  ARG A   1      26.325  17.658  29.935  0.00  0.00    +0.259 HD
ATOM      3  CZ  ARG A   1      24.397  17.239  29.447  0.00  0.00    +0.342 C 
ATOM      4  NH2 ARG A   1      24.046  18.518  29.440  0.00  0.00    -0.292 N 
ATOM      5 HH21 ARG A   1      24.751  19.252  29.653  0.00  0.00    +0.255 HD
ATOM      6 HH22 ARG A   1      23.065  18.787  29.221  0.00  0.00    +0.255 HD
ATOM      7  NH1 ARG A   1      23.495  16.303  29.185  0.00  0.00    -0.292 N 
ATOM      8 HH11 ARG A   1      23.768  15.300  29.198  0.00  0.00    +0.255 HD
ATOM      9 HH12 ARG A   1      22.515  16.572  28.966  0.00  0.00    +0.255 HD
ENDROOT
BRANCH   1  10
ATOM     10  CD  ARG A   1      26.135  15.525  29.759  0.00  0.00    +0.174 C 
BRANCH  10  11
ATOM     11  CG  ARG A   1      27.130  15.331  30.877  0.00  0.00    +0.045 C 
BRANCH  11  12
ATOM     12  CB  ARG A   1      26.476  15.487  32.251  0.00  0.00    +0.029 C 
BRANCH  12  13
ATOM     13  CA  ARG A   1      27.495  15.388  33.393  0.00  0.00    +0.133 C 
BRANCH  13  14
ATOM     14  N   ARG A   1      28.242  14.149  33.276  0.00  0.00    -0.239 NA
ATOM     15  H   ARG A   1      27.738  13.246  33.163  0.00  0.00    +0.142 HD
ENDBRANCH  13  14
BRANCH  13  16
ATOM     16  C   ARG A   1      26.831  15.394  34.759  0.00  0.00    +0.224 C 
ATOM     17  O   ARG A   1      26.298  14.381  35.210  0.00  0.00    -0.287 OA
ENDBRANCH  13  16
ENDBRANCH  12  13
ENDBRANCH  11  12
ENDBRANCH  10  11
ENDBRANCH   1  10
TORSDOF 6
REMARK  Name = ../refined-set-2016/3lpi/3lpi_pocket.pdb
REMARK  250 active torsions:
REMARK  status: ('A' for Active; 'I' for Inactive)
REMARK    1  A    between atoms: _1  and  _3
REMARK    2  A    between atoms: _3  and  _4
REMARK    3  A    between atoms: _3  and  _6
REMARK    4  A    between atoms: _6  and  _7
REMARK    5  A    between atoms: _7  and  _8
REMARK    6  A    between atoms: _8  and  _9
REMARK    7  A    between atoms: _9  and  _10
REMARK    8  A    between atoms: _14  and  _16
REMARK    9  A    between atoms: _16  and  _17
REMARK   10  A    between atoms: _16  and  _19
REMARK   11  A    between atoms: _19  and  _20
REMARK   12  A    between atoms: _22  and  _24
REMARK   13  A    between atoms: _24  and  _25
REMARK   14  A    between atoms: _27  and  _29
REMARK   15  A    between atoms: _29  and  _30
REMARK   16  A    between atoms: _29  and  _32
REMARK   17  A    between atoms: _32  and  _33
REMARK   18  A    between atoms: _33  and  _34
REMARK   19  A    between atoms: _39  and  _41
REMARK   20  A    between atoms: _41  and  _42
REMARK   21  A    between atoms: _44  and  _46
REMARK   22  A    between atoms: _46  and  _47
REMARK   23  A    between atoms: _46  and  _49
REMARK   24  A    between atoms: _49  and  _50
REMARK   25  A    between atoms: _55  and  _56
REMARK   26  A    between atoms: _58  and  _60
REMARK   27  A    between atoms: _60  and  _61
REMARK   28  A    between atoms: _60  and  _63
REMARK   29  A    between atoms: _63  and  _64
REMARK   30  A    between atoms: _67  and  _69
REMARK   31  A    between atoms: _69  and  _70
REMARK   32  A    between atoms: _69  and  _72
REMARK   33  A    between atoms: _75  and  _77
REMARK   34  A    between atoms: _77  and  _78
REMARK   35  A    between atoms: _77  and  _80
REMARK   36  A    between atoms: _80  and  _81
REMARK   37  A    between atoms: _84  and  _86
REMARK   38  A    between atoms: _86  and  _87
REMARK   39  A    between atoms: _86  and  _89
REMARK   40  A    between atoms: _89  and  _90
REMARK   41  A    between atoms: _93  and  _95
REMARK   42  A    between atoms: _95  and  _96
REMARK   43  A    between atoms: _98  and  _100
REMARK   44  A    between atoms: _100  and  _101
REMARK   45  A    between atoms: _100  and  _103
REMARK   46  A    between atoms: _103  and  _104
REMARK   47  A    between atoms: _106  and  _108
REMARK   48  A    between atoms: _108  and  _109
REMARK   49  A    between atoms: _108  and  _111
REMARK   50  A    between atoms: _111  and  _112
REMARK   51  A    between atoms: _114  and  _116
REMARK   52  A    between atoms: _116  and  _117
REMARK   53  A    between atoms: _116  and  _119
REMARK   54  A    between atoms: _119  and  _120
REMARK   55  A    between atoms: _125  and  _127
REMARK   56  A    between atoms: _127  and  _128
REMARK   57  A    between atoms: _127  and  _130
REMARK   58  A    between atoms: _130  and  _131
REMARK   59  A    between atoms: _136  and  _137
REMARK   60  A    between atoms: _139  and  _141
REMARK   61  A    between atoms: _141  and  _142
REMARK   62  A    between atoms: _141  and  _144
REMARK   63  A    between atoms: _148  and  _149
REMARK   64  A    between atoms: _154  and  _156
REMARK   65  A    between atoms: _156  and  _157
REMARK   66  A    between atoms: _156  and  _159
REMARK   67  A    between atoms: _159  and  _160
REMARK   68  A    between atoms: _165  and  _166
REMARK   69  A    between atoms: _168  and  _170
REMARK   70  A    between atoms: _170  and  _171
REMARK   71  A    between atoms: _170  and  _173
REMARK   72  A    between atoms: _173  and  _174
REMARK   73  A    between atoms: _177  and  _179
REMARK   74  A    between atoms: _179  and  _180
REMARK   75  A    between atoms: _179  and  _182
REMARK   76  A    between atoms: _182  and  _183
REMARK   77  A    between atoms: _183  and  _184
REMARK   78  A    between atoms: _189  and  _191
REMARK   79  A    between atoms: _191  and  _192
REMARK   80  A    between atoms: _194  and  _196
REMARK   81  A    between atoms: _196  and  _197
REMARK   82  A    between atoms: _196  and  _199
REMARK   83  A    between atoms: _199  and  _200
REMARK   84  A    between atoms: _200  and  _201
REMARK   85  A    between atoms: _201  and  _202
REMARK   86  A    between atoms: _202  and  _203
REMARK   87  A    between atoms: _207  and  _209
REMARK   88  A    between atoms: _209  and  _210
REMARK   89  A    between atoms: _209  and  _212
REMARK   90  A    between atoms: _212  and  _213
REMARK   91  A    between atoms: _223  and  _225
REMARK   92  A    between atoms: _225  and  _226
REMARK   93  A    between atoms: _225  and  _228
REMARK   94  A    between atoms: _228  and  _229
REMARK   95  A    between atoms: _232  and  _234
REMARK   96  A    between atoms: _234  and  _235
REMARK   97  A    between atoms: _234  and  _237
REMARK   98  A    between atoms: _237  and  _238
REMARK   99  A    between atoms: _238  and  _239
REMARK  100  A    between atoms: _239  and  _240
REMARK  101  A    between atoms: _240  and  _241
REMARK  102  A    between atoms: _245  and  _247
REMARK  103  A    between atoms: _247  and  _248
REMARK  104  A    between atoms: _247  and  _250
REMARK  105  A    between atoms: _250  and  _251
REMARK  106  A    between atoms: _257  and  _259
REMARK  107  A    between atoms: _259  and  _260
REMARK  108  A    between atoms: _259  and  _262
REMARK  109  A    between atoms: _262  and  _263
REMARK  110  A    between atoms: _269  and  _271
REMARK  111  A    between atoms: _271  and  _272
REMARK  112  A    between atoms: _271  and  _274
REMARK  113  A    between atoms: _274  and  _275
REMARK  114  A    between atoms: _278  and  _280
REMARK  115  A    between atoms: _280  and  _281
REMARK  116  A    between atoms: _280  and  _283
REMARK  117  A    between atoms: _283  and  _284
REMARK  118  A    between atoms: _286  and  _288
REMARK  119  A    between atoms: _288  and  _289
REMARK  120  A    between atoms: _288  and  _291
REMARK  121  A    between atoms: _291  and  _292
REMARK  122  A    between atoms: _302  and  _304
REMARK  123  A    between atoms: _304  and  _305
REMARK  124  A    between atoms: _307  and  _309
REMARK  125  A    between atoms: _309  and  _310
REMARK  126  A    between atoms: _309  and  _312
REMARK  127  A    between atoms: _312  and  _313
REMARK  128  A    between atoms: _316  and  _318
REMARK  129  A    between atoms: _318  and  _319
REMARK  130  A    between atoms: _318  and  _321
REMARK  131  A    between atoms: _321  and  _322
REMARK  132  A    between atoms: _325  and  _327
REMARK  133  A    between atoms: _327  and  _328
REMARK  134  A    between atoms: _330  and  _332
REMARK  135  A    between atoms: _332  and  _333
REMARK  136  A    between atoms: _332  and  _335
REMARK  137  A    between atoms: _335  and  _336
REMARK  138  A    between atoms: _339  and  _341
REMARK  139  A    between atoms: _341  and  _342
REMARK  140  A    between atoms: _345  and  _347
REMARK  141  A    between atoms: _347  and  _348
REMARK  142  A    between atoms: _347  and  _350
REMARK  143  A    between atoms: _350  and  _351
REMARK  144  A    between atoms: _356  and  _357
REMARK  145  A    between atoms: _359  and  _361
REMARK  146  A    between atoms: _361  and  _362
REMARK  147  A    between atoms: _361  and  _364
REMARK  148  A    between atoms: _364  and  _365
REMARK  149  A    between atoms: _365  and  _366
REMARK  150  A    between atoms: _369  and  _371
REMARK  151  A    between atoms: _371  and  _372
REMARK  152  A    between atoms: _371  and  _374
REMARK  153  A    between atoms: _374  and  _375
REMARK  154  A    between atoms: _378  and  _380
REMARK  155  A    between atoms: _380  and  _381
REMARK  156  A    between atoms: _384  and  _386
REMARK  157  A    between atoms: _386  and  _387
REMARK  158  A    between atoms: _386  and  _389
REMARK  159  A    between atoms: _389  and  _390
REMARK  160  A    between atoms: _390  and  _391
REMARK  161  A    between atoms: _391  and  _392
REMARK  162  A    between atoms: _401  and  _403
REMARK  163  A    between atoms: _403  and  _404
REMARK  164  A    between atoms: _403  and  _406
REMARK  165  A    between atoms: _406  and  _407
REMARK  166  A    between atoms: _417  and  _419
REMARK  167  A    between atoms: _419  and  _420
REMARK  168  A    between atoms: _419  and  _422
REMARK  169  A    between atoms: _422  and  _423
REMARK  170  A    between atoms: _428  and  _429
REMARK  171  A    between atoms: _431  and  _433
REMARK  172  A    between atoms: _433  and  _434
REMARK  173  A    between atoms: _433  and  _436
REMARK  174  A    between atoms: _436  and  _437
REMARK  175  A    between atoms: _442  and  _443
REMARK  176  A    between atoms: _445  and  _447
REMARK  177  A    between atoms: _447  and  _448
REMARK  178  A    between atoms: _447  and  _450
REMARK  179  A    between atoms: _450  and  _451
REMARK  180  A    between atoms: _451  and  _452
REMARK  181  A    between atoms: _452  and  _453
REMARK  182  A    between atoms: _453  and  _454
REMARK  183  A    between atoms: _458  and  _460
REMARK  184  A    between atoms: _460  and  _461
REMARK  185  A    between atoms: _460  and  _463
REMARK  186  A    between atoms: _463  and  _464
REMARK  187  A    between atoms: _467  and  _469
REMARK  188  A    between atoms: _469  and  _470
REMARK  189  A    between atoms: _469  and  _472
REMARK  190  A    between atoms: _475  and  _477
REMARK  191  A    between atoms: _477  and  _478
REMARK  192  A    between atoms: _477  and  _480
REMARK  193  A    between atoms: _480  and  _481
REMARK  194  A    between atoms: _484  and  _486
REMARK  195  A    between atoms: _486  and  _487
REMARK  196  A    between atoms: _486  and  _489
REMARK  197  A    between atoms: _489  and  _490
REMARK  198  A    between atoms: _492  and  _494
REMARK  199  A    between atoms: _494  and  _495
REMARK  200  A    between atoms: _497  and  _499
REMARK  201  A    between atoms: _499  and  _500
REMARK  202  A    between atoms: _499  and  _502
REMARK  203  A    between atoms: _502  and  _503
REMARK  204  A    between atoms: _506  and  _508
REMARK  205  A    between atoms: _508  and  _509
REMARK  206  A    between atoms: _508  and  _511
REMARK  207  A    between atoms: _511  and  _512
REMARK  208  A    between atoms: _515  and  _517
REMARK  209  A    between atoms: _517  and  _518
REMARK  210  A    between atoms: _517  and  _520
REMARK  211  A    between atoms: _520  and  _521
REMARK  212  A    between atoms: _526  and  _528
REMARK  213  A    between atoms: _528  and  _529
REMARK  214  A    between atoms: _528  and  _531
REMARK  215  A    between atoms: _531  and  _532
REMARK  216  A    between atoms: _532  and  _533
REMARK  217  A    between atoms: _533  and  _534
REMARK  218  A    between atoms: _543  and  _545
REMARK  219  A    between atoms: _545  and  _546
REMARK  220  A    between atoms: _545  and  _548
REMARK  221  A    between atoms: _548  and  _549
REMARK  222  A    between atoms: _549  and  _550
REMARK  223  A    between atoms: _550  and  _551
REMARK  224  A    between atoms: _560  and  _562
REMARK  225  A    between atoms: _562  and  _563
REMARK  226  A    between atoms: _562  and  _565
REMARK  227  A    between atoms: _565  and  _566
REMARK  228  A    between atoms: _568  and  _570
REMARK  229  A    between atoms: _570  and  _571
REMARK  230  A    between atoms: _570  and  _573
REMARK  231  A    between atoms: _573  and  _574
REMARK  232  A    between atoms: _574  and  _575
REMARK  233  A    between atoms: _580  and  _582
REMARK  234  A    between atoms: _582  and  _583
REMARK  235  A    between atoms: _582  and  _585
REMARK  236  A    between atoms: _585  and  _586
REMARK  237  A    between atoms: _589  and  _591
REMARK  238  A    between atoms: _591  and  _592
REMARK  239  A    between atoms: _591  and  _594
REMARK  240  A    between atoms: _594  and  _595
REMARK  241  A    between atoms: _598  and  _600
REMARK  242  A    between atoms: _600  and  _601
REMARK  243  A    between atoms: _600  and  _603
REMARK  244  A    between atoms: _606  and  _608
REMARK  245  A    between atoms: _608  and  _609
REMARK  246  A    between atoms: _611  and  _613
REMARK  247  A    between atoms: _613  and  _614
REMARK  248  A    between atoms: _617  and  _619
REMARK  249  A    between atoms: _619  and  _620
REMARK  250  A    between atoms: _619  and  _622
REMARK                            x       y       z     vdW  Elec       q    Type
REMARK                         _______ _______ _______ _____ _____    ______ ____
ROOT
ATOM      1  NE  ARG A   1      36.622  14.333  25.117  0.00  0.00    -0.265 N 
ATOM      2  HE  ARG A   1      36.113  14.929  25.801  0.00  0.00    +0.259 HD
ATOM      3  CZ  ARG A   1      36.957  14.875  23.949  0.00  0.00    +0.342 C 
ATOM      4  NH2 ARG A   1      36.654  16.140  23.698  0.00  0.00    -0.292 N 
ATOM      5 HH21 ARG A   1      36.155  16.707  24.413  0.00  0.00    +0.255 HD
ATOM      6 HH22 ARG A   1      36.915  16.566  22.786  0.00  0.00    +0.255 HD
ATOM      7  NH1 ARG A   1      37.604  14.160  23.033  0.00  0.00    -0.292 N 
ATOM      8 HH11 ARG A   1      37.852  13.169  23.227  0.00  0.00    +0.255 HD
ATOM      9 HH12 ARG A   1      37.862  14.592  22.123  0.00  0.00    +0.255 HD
ENDROOT
BRANCH   1  10
ATOM     10  CD  ARG A   1      36.922  12.954  25.504  0.00  0.00    +0.174 C 
BRANCH  10  11
ATOM     11  CG  ARG A   1      38.374  12.769  25.942  0.00  0.00    +0.045 C 
BRANCH  11  12
ATOM     12  CB  ARG A   1      38.652  13.573  27.204  0.00  0.00    +0.029 C 
BRANCH  12  13
ATOM     13  CA  ARG A   1      40.001  13.292  27.874  0.00  0.00    +0.133 C 
BRANCH  13  14
ATOM     14  N   ARG A   1      40.039  13.966  29.169  0.00  0.00    -0.239 NA
ATOM     15  H   ARG A   1      39.536  14.869  29.281  0.00  0.00    +0.142 HD
ENDBRANCH  13  14
BRANCH  13  16
ATOM     16  C   ARG A   1      41.141  13.679  26.935  0.00  0.00    +0.224 C 
ATOM     17  O   ARG A   1      41.297  14.842  26.581  0.00  0.00    -0.287 OA
ENDBRANCH  13  16
ENDBRANCH  12  13
ENDBRANCH  11  12
ENDBRANCH  10  11
ENDBRANCH   1  10
TORSDOF 6
REMARK  Name = ../refined-set-2016/3lpi/3lpi_pocket.pdb
REMARK  250 active torsions:
REMARK  status: ('A' for Active; 'I' for Inactive)
REMARK    1  A    between atoms: _1  and  _3
REMARK    2  A    between atoms: _3  and  _4
REMARK    3  A    between atoms: _3  and  _6
REMARK    4  A    between atoms: _6  and  _7
REMARK    5  A    between atoms: _7  and  _8
REMARK    6  A    between atoms: _8  and  _9
REMARK    7  A    between atoms: _9  and  _10
REMARK    8  A    between atoms: _14  and  _16
REMARK    9  A    between atoms: _16  and  _17
REMARK   10  A    between atoms: _16  and  _19
REMARK   11  A    between atoms: _19  and  _20
REMARK   12  A    between atoms: _22  and  _24
REMARK   13  A    between atoms: _24  and  _25
REMARK   14  A    between atoms: _27  and  _29
REMARK   15  A    between atoms: _29  and  _30
REMARK   16  A    between atoms: _29  and  _32
REMARK   17  A    between atoms: _32  and  _33
REMARK   18  A    between atoms: _33  and  _34
REMARK   19  A    between atoms: _39  and  _41
REMARK   20  A    between atoms: _41  and  _42
REMARK   21  A    between atoms: _44  and  _46
REMARK   22  A    between atoms: _46  and  _47
REMARK   23  A    between atoms: _46  and  _49
REMARK   24  A    between atoms: _49  and  _50
REMARK   25  A    between atoms: _55  and  _56
REMARK   26  A    between atoms: _58  and  _60
REMARK   27  A    between atoms: _60  and  _61
REMARK   28  A    between atoms: _60  and  _63
REMARK   29  A    between atoms: _63  and  _64
REMARK   30  A    between atoms: _67  and  _69
REMARK   31  A    between atoms: _69  and  _70
REMARK   32  A    between atoms: _69  and  _72
REMARK   33  A    between atoms: _75  and  _77
REMARK   34  A    between atoms: _77  and  _78
REMARK   35  A    between atoms: _77  and  _80
REMARK   36  A    between atoms: _80  and  _81
REMARK   37  A    between atoms: _84  and  _86
REMARK   38  A    between atoms: _86  and  _87
REMARK   39  A    between atoms: _86  and  _89
REMARK   40  A    between atoms: _89  and  _90
REMARK   41  A    between atoms: _93  and  _95
REMARK   42  A    between atoms: _95  and  _96
REMARK   43  A    between atoms: _98  and  _100
REMARK   44  A    between atoms: _100  and  _101
REMARK   45  A    between atoms: _100  and  _103
REMARK   46  A    between atoms: _103  and  _104
REMARK   47  A    between atoms: _106  and  _108
REMARK   48  A    between atoms: _108  and  _109
REMARK   49  A    between atoms: _108  and  _111
REMARK   50  A    between atoms: _111  and  _112
REMARK   51  A    between atoms: _114  and  _116
REMARK   52  A    between atoms: _116  and  _117
REMARK   53  A    between atoms: _116  and  _119
REMARK   54  A    between atoms: _119  and  _120
REMARK   55  A    between atoms: _125  and  _127
REMARK   56  A    between atoms: _127  and  _128
REMARK   57  A    between atoms: _127  and  _130
REMARK   58  A    between atoms: _130  and  _131
REMARK   59  A    between atoms: _136  and  _137
REMARK   60  A    between atoms: _139  and  _141
REMARK   61  A    between atoms: _141  and  _142
REMARK   62  A    between atoms: _141  and  _144
REMARK   63  A    between atoms: _148  and  _149
REMARK   64  A    between atoms: _154  and  _156
REMARK   65  A    between atoms: _156  and  _157
REMARK   66  A    between atoms: _156  and  _159
REMARK   67  A    between atoms: _159  and  _160
REMARK   68  A    between atoms: _165  and  _166
REMARK   69  A    between atoms: _168  and  _170
REMARK   70  A    between atoms: _170  and  _171
REMARK   71  A    between atoms: _170  and  _173
REMARK   72  A    between atoms: _173  and  _174
REMARK   73  A    between atoms: _177  and  _179
REMARK   74  A    between atoms: _179  and  _180
REMARK   75  A    between atoms: _179  and  _182
REMARK   76  A    between atoms: _182  and  _183
REMARK   77  A    between atoms: _183  and  _184
REMARK   78  A    between atoms: _189  and  _191
REMARK   79  A    between atoms: _191  and  _192
REMARK   80  A    between atoms: _194  and  _196
REMARK   81  A    between atoms: _196  and  _197
REMARK   82  A    between atoms: _196  and  _199
REMARK   83  A    between atoms: _199  and  _200
REMARK   84  A    between atoms: _200  and  _201
REMARK   85  A    between atoms: _201  and  _202
REMARK   86  A    between atoms: _202  and  _203
REMARK   87  A    between atoms: _207  and  _209
REMARK   88  A    between atoms: _209  and  _210
REMARK   89  A    between atoms: _209  and  _212
REMARK   90  A    between atoms: _212  and  _213
REMARK   91  A    between atoms: _223  and  _225
REMARK   92  A    between atoms: _225  and  _226
REMARK   93  A    between atoms: _225  and  _228
REMARK   94  A    between atoms: _228  and  _229
REMARK   95  A    between atoms: _232  and  _234
REMARK   96  A    between atoms: _234  and  _235
REMARK   97  A    between atoms: _234  and  _237
REMARK   98  A    between atoms: _237  and  _238
REMARK   99  A    between atoms: _238  and  _239
REMARK  100  A    between atoms: _239  and  _240
REMARK  101  A    between atoms: _240  and  _241
REMARK  102  A    between atoms: _245  and  _247
REMARK  103  A    between atoms: _247  and  _248
REMARK  104  A    between atoms: _247  and  _250
REMARK  105  A    between atoms: _250  and  _251
REMARK  106  A    between atoms: _257  and  _259
REMARK  107  A    between atoms: _259  and  _260
REMARK  108  A    between atoms: _259  and  _262
REMARK  109  A    between atoms: _262  and  _263
REMARK  110  A    between atoms: _269  and  _271
REMARK  111  A    between atoms: _271  and  _272
REMARK  112  A    between atoms: _271  and  _274
REMARK  113  A    between atoms: _274  and  _275
REMARK  114  A    between atoms: _278  and  _280
REMARK  115  A    between atoms: _280  and  _281
REMARK  116  A    between atoms: _280  and  _283
REMARK  117  A    between atoms: _283  and  _284
REMARK  118  A    between atoms: _286  and  _288
REMARK  119  A    between atoms: _288  and  _289
REMARK  120  A    between atoms: _288  and  _291
REMARK  121  A    between atoms: _291  and  _292
REMARK  122  A    between atoms: _302  and  _304
REMARK  123  A    between atoms: _304  and  _305
REMARK  124  A    between atoms: _307  and  _309
REMARK  125  A    between atoms: _309  and  _310
REMARK  126  A    between atoms: _309  and  _312
REMARK  127  A    between atoms: _312  and  _313
REMARK  128  A    between atoms: _316  and  _318
REMARK  129  A    between atoms: _318  and  _319
REMARK  130  A    between atoms: _318  and  _321
REMARK  131  A    between atoms: _321  and  _322
REMARK  132  A    between atoms: _325  and  _327
REMARK  133  A    between atoms: _327  and  _328
REMARK  134  A    between atoms: _330  and  _332
REMARK  135  A    between atoms: _332  and  _333
REMARK  136  A    between atoms: _332  and  _335
REMARK  137  A    between atoms: _335  and  _336
REMARK  138  A    between atoms: _339  and  _341
REMARK  139  A    between atoms: _341  and  _342
REMARK  140  A    between atoms: _345  and  _347
REMARK  141  A    between atoms: _347  and  _348
REMARK  142  A    between atoms: _347  and  _350
REMARK  143  A    between atoms: _350  and  _351
REMARK  144  A    between atoms: _356  and  _357
REMARK  145  A    between atoms: _359  and  _361
REMARK  146  A    between atoms: _361  and  _362
REMARK  147  A    between atoms: _361  and  _364
REMARK  148  A    between atoms: _364  and  _365
REMARK  149  A    between atoms: _365  and  _366
REMARK  150  A    between atoms: _369  and  _371
REMARK  151  A    between atoms: _371  and  _372
REMARK  152  A    between atoms: _371  and  _374
REMARK  153  A    between atoms: _374  and  _375
REMARK  154  A    between atoms: _378  and  _380
REMARK  155  A    between atoms: _380  and  _381
REMARK  156  A    between atoms: _384  and  _386
REMARK  157  A    between atoms: _386  and  _387
REMARK  158  A    between atoms: _386  and  _389
REMARK  159  A    between atoms: _389  and  _390
REMARK  160  A    between atoms: _390  and  _391
REMARK  161  A    between atoms: _391  and  _392
REMARK  162  A    between atoms: _401  and  _403
REMARK  163  A    between atoms: _403  and  _404
REMARK  164  A    between atoms: _403  and  _406
REMARK  165  A    between atoms: _406  and  _407
REMARK  166  A    between atoms: _417  and  _419
REMARK  167  A    between atoms: _419  and  _420
REMARK  168  A    between atoms: _419  and  _422
REMARK  169  A    between atoms: _422  and  _423
REMARK  170  A    between atoms: _428  and  _429
REMARK  171  A    between atoms: _431  and  _433
REMARK  172  A    between atoms: _433  and  _434
REMARK  173  A    between atoms: _433  and  _436
REMARK  174  A    between atoms: _436  and  _437
REMARK  175  A    between atoms: _442  and  _443
REMARK  176  A    between atoms: _445  and  _447
REMARK  177  A    between atoms: _447  and  _448
REMARK  178  A    between atoms: _447  and  _450
REMARK  179  A    between atoms: _450  and  _451
REMARK  180  A    between atoms: _451  and  _452
REMARK  181  A    between atoms: _452  and  _453
REMARK  182  A    between atoms: _453  and  _454
REMARK  183  A    between atoms: _458  and  _460
REMARK  184  A    between atoms: _460  and  _461
REMARK  185  A    between atoms: _460  and  _463
REMARK  186  A    between atoms: _463  and  _464
REMARK  187  A    between atoms: _467  and  _469
REMARK  188  A    between atoms: _469  and  _470
REMARK  189  A    between atoms: _469  and  _472
REMARK  190  A    between atoms: _475  and  _477
REMARK  191  A    between atoms: _477  and  _478
REMARK  192  A    between atoms: _477  and  _480
REMARK  193  A    between atoms: _480  and  _481
REMARK  194  A    between atoms: _484  and  _486
REMARK  195  A    between atoms: _486  and  _487
REMARK  196  A    between atoms: _486  and  _489
REMARK  197  A    between atoms: _489  and  _490
REMARK  198  A    between atoms: _492  and  _494
REMARK  199  A    between atoms: _494  and  _495
REMARK  200  A    between atoms: _497  and  _499
REMARK  201  A    between atoms: _499  and  _500
REMARK  202  A    between atoms: _499  and  _502
REMARK  203  A    between atoms: _502  and  _503
REMARK  204  A    between atoms: _506  and  _508
REMARK  205  A    between atoms: _508  and  _509
REMARK  206  A    between atoms: _508  and  _511
REMARK  207  A    between atoms: _511  and  _512
REMARK  208  A    between atoms: _515  and  _517
REMARK  209  A    between atoms: _517  and  _518
REMARK  210  A    between atoms: _517  and  _520
REMARK  211  A    between atoms: _520  and  _521
REMARK  212  A    between atoms: _526  and  _528
REMARK  213  A    between atoms: _528  and  _529
REMARK  214  A    between atoms: _528  and  _531
REMARK  215  A    between atoms: _531  and  _532
REMARK  216  A    between atoms: _532  and  _533
REMARK  217  A    between atoms: _533  and  _534
REMARK  218  A    between atoms: _543  and  _545
REMARK  219  A    between atoms: _545  and  _546
REMARK  220  A    between atoms: _545  and  _548
REMARK  221  A    between atoms: _548  and  _549
REMARK  222  A    between atoms: _549  and  _550
REMARK  223  A    between atoms: _550  and  _551
REMARK  224  A    between atoms: _560  and  _562
REMARK  225  A    between atoms: _562  and  _563
REMARK  226  A    between atoms: _562  and  _565
REMARK  227  A    between atoms: _565  and  _566
REMARK  228  A    between atoms: _568  and  _570
REMARK  229  A    between atoms: _570  and  _571
REMARK  230  A    between atoms: _570  and  _573
REMARK  231  A    between atoms: _573  and  _574
REMARK  232  A    between atoms: _574  and  _575
REMARK  233  A    between atoms: _580  and  _582
REMARK  234  A    between atoms: _582  and  _583
REMARK  235  A    between atoms: _582  and  _585
REMARK  236  A    between atoms: _585  and  _586
REMARK  237  A    between atoms: _589  and  _591
REMARK  238  A    between atoms: _591  and  _592
REMARK  239  A    between atoms: _591  and  _594
REMARK  240  A    between atoms: _594  and  _595
REMARK  241  A    between atoms: _598  and  _600
REMARK  242  A    between atoms: _600  and  _601
REMARK  243  A    between atoms: _600  and  _603
REMARK  244  A    between atoms: _606  and  _608
REMARK  245  A    between atoms: _608  and  _609
REMARK  246  A    between atoms: _611  and  _613
REMARK  247  A    between atoms: _613  and  _614
REMARK  248  A    between atoms: _617  and  _619
REMARK  249  A    between atoms: _619  and  _620
REMARK  250  A    between atoms: _619  and  _622
REMARK                            x       y       z     vdW  Elec       q    Type
REMARK                         _______ _______ _______ _____ _____    ______ ____
ROOT
ATOM      1  C   SER A   1      28.862  19.374  33.268  0.00  0.00    +0.241 C 
ATOM      2  O   SER A   1      28.399  18.338  33.747  0.00  0.00    -0.274 OA
ATOM      3  N   GLN A   2      28.216  20.534  33.326  0.00  0.00    -0.298 N 
ATOM      4  H   GLN A   2      28.626  21.388  32.897  0.00  0.00    +0.150 HD
ENDROOT
BRANCH   1   5
ATOM      5  CA  SER A   1      30.221  19.374  32.580  0.00  0.00    +0.174 C 
BRANCH   5   6
ATOM      6  N   SER A   1      30.972  18.163  32.881  0.00  0.00    -0.236 NA
ATOM      7  H   SER A   1      30.470  17.257  32.976  0.00  0.00    +0.142 HD
ENDBRANCH   5   6
BRANCH   5   8
ATOM      8  CB  SER A   1      30.055  19.515  31.067  0.00  0.00    +0.163 C 
BRANCH   8   9
ATOM      9  OG  SER A   1      29.573  18.315  30.500  0.00  0.00    -0.380 OA
ATOM     10  H   SER A   1      29.474  18.430  29.522  0.00  0.00    +0.211 HD
ENDBRANCH   8   9
ENDBRANCH   5   8
ENDBRANCH   1   5
BRANCH   3  11
ATOM     11  CA  GLN A   2      26.930  20.593  33.997  0.00  0.00    +0.137 C 
BRANCH  11  12
ATOM     12  C   GLN A   2      25.767  20.160  33.132  0.00  0.00    +0.227 C 
ATOM     13  O   GLN A   2      25.817  20.208  31.903  0.00  0.00    -0.286 OA
ENDBRANCH  11  12
BRANCH  11  14
ATOM     14  CB  GLN A   2      26.660  21.985  34.581  0.00  0.00    +0.037 C 
BRANCH  14  15
ATOM     15  CG  GLN A   2      26.483  23.107  33.589  0.00  0.00    +0.087 C 
BRANCH  15  16
ATOM     16  CD  GLN A   2      26.024  24.387  34.277  0.00  0.00    +0.219 C 
ATOM     17  OE1 GLN A   2      24.891  24.481  34.743  0.00  0.00    -0.275 OA
ATOM     18  NE2 GLN A   2      26.910  25.370  34.353  0.00  0.00    -0.329 N 
ATOM     19 HE21 GLN A   2      26.657  26.264  34.821  0.00  0.00    +0.145 HD
ATOM     20 HE22 GLN A   2      27.859  25.248  33.945  0.00  0.00    +0.145 HD
ENDBRANCH  15  16
ENDBRANCH  14  15
ENDBRANCH  11  14
ENDBRANCH   3  11
TORSDOF 9
REMARK  Name = ../refined-set-2016/3lpi/3lpi_pocket.pdb
REMARK  250 active torsions:
REMARK  status: ('A' for Active; 'I' for Inactive)
REMARK    1  A    between atoms: _1  and  _3
REMARK    2  A    between atoms: _3  and  _4
REMARK    3  A    between atoms: _3  and  _6
REMARK    4  A    between atoms: _6  and  _7
REMARK    5  A    between atoms: _7  and  _8
REMARK    6  A    between atoms: _8  and  _9
REMARK    7  A    between atoms: _9  and  _10
REMARK    8  A    between atoms: _14  and  _16
REMARK    9  A    between atoms: _16  and  _17
REMARK   10  A    between atoms: _16  and  _19
REMARK   11  A    between atoms: _19  and  _20
REMARK   12  A    between atoms: _22  and  _24
REMARK   13  A    between atoms: _24  and  _25
REMARK   14  A    between atoms: _27  and  _29
REMARK   15  A    between atoms: _29  and  _30
REMARK   16  A    between atoms: _29  and  _32
REMARK   17  A    between atoms: _32  and  _33
REMARK   18  A    between atoms: _33  and  _34
REMARK   19  A    between atoms: _39  and  _41
REMARK   20  A    between atoms: _41  and  _42
REMARK   21  A    between atoms: _44  and  _46
REMARK   22  A    between atoms: _46  and  _47
REMARK   23  A    between atoms: _46  and  _49
REMARK   24  A    between atoms: _49  and  _50
REMARK   25  A    between atoms: _55  and  _56
REMARK   26  A    between atoms: _58  and  _60
REMARK   27  A    between atoms: _60  and  _61
REMARK   28  A    between atoms: _60  and  _63
REMARK   29  A    between atoms: _63  and  _64
REMARK   30  A    between atoms: _67  and  _69
REMARK   31  A    between atoms: _69  and  _70
REMARK   32  A    between atoms: _69  and  _72
REMARK   33  A    between atoms: _75  and  _77
REMARK   34  A    between atoms: _77  and  _78
REMARK   35  A    between atoms: _77  and  _80
REMARK   36  A    between atoms: _80  and  _81
REMARK   37  A    between atoms: _84  and  _86
REMARK   38  A    between atoms: _86  and  _87
REMARK   39  A    between atoms: _86  and  _89
REMARK   40  A    between atoms: _89  and  _90
REMARK   41  A    between atoms: _93  and  _95
REMARK   42  A    between atoms: _95  and  _96
REMARK   43  A    between atoms: _98  and  _100
REMARK   44  A    between atoms: _100  and  _101
REMARK   45  A    between atoms: _100  and  _103
REMARK   46  A    between atoms: _103  and  _104
REMARK   47  A    between atoms: _106  and  _108
REMARK   48  A    between atoms: _108  and  _109
REMARK   49  A    between atoms: _108  and  _111
REMARK   50  A    between atoms: _111  and  _112
REMARK   51  A    between atoms: _114  and  _116
REMARK   52  A    between atoms: _116  and  _117
REMARK   53  A    between atoms: _116  and  _119
REMARK   54  A    between atoms: _119  and  _120
REMARK   55  A    between atoms: _125  and  _127
REMARK   56  A    between atoms: _127  and  _128
REMARK   57  A    between atoms: _127  and  _130
REMARK   58  A    between atoms: _130  and  _131
REMARK   59  A    between atoms: _136  and  _137
REMARK   60  A    between atoms: _139  and  _141
REMARK   61  A    between atoms: _141  and  _142
REMARK   62  A    between atoms: _141  and  _144
REMARK   63  A    between atoms: _148  and  _149
REMARK   64  A    between atoms: _154  and  _156
REMARK   65  A    between atoms: _156  and  _157
REMARK   66  A    between atoms: _156  and  _159
REMARK   67  A    between atoms: _159  and  _160
REMARK   68  A    between atoms: _165  and  _166
REMARK   69  A    between atoms: _168  and  _170
REMARK   70  A    between atoms: _170  and  _171
REMARK   71  A    between atoms: _170  and  _173
REMARK   72  A    between atoms: _173  and  _174
REMARK   73  A    between atoms: _177  and  _179
REMARK   74  A    between atoms: _179  and  _180
REMARK   75  A    between atoms: _179  and  _182
REMARK   76  A    between atoms: _182  and  _183
REMARK   77  A    between atoms: _183  and  _184
REMARK   78  A    between atoms: _189  and  _191
REMARK   79  A    between atoms: _191  and  _192
REMARK   80  A    between atoms: _194  and  _196
REMARK   81  A    between atoms: _196  and  _197
REMARK   82  A    between atoms: _196  and  _199
REMARK   83  A    between atoms: _199  and  _200
REMARK   84  A    between atoms: _200  and  _201
REMARK   85  A    between atoms: _201  and  _202
REMARK   86  A    between atoms: _202  and  _203
REMARK   87  A    between atoms: _207  and  _209
REMARK   88  A    between atoms: _209  and  _210
REMARK   89  A    between atoms: _209  and  _212
REMARK   90  A    between atoms: _212  and  _213
REMARK   91  A    between atoms: _223  and  _225
REMARK   92  A    between atoms: _225  and  _226
REMARK   93  A    between atoms: _225  and  _228
REMARK   94  A    between atoms: _228  and  _229
REMARK   95  A    between atoms: _232  and  _234
REMARK   96  A    between atoms: _234  and  _235
REMARK   97  A    between atoms: _234  and  _237
REMARK   98  A    between atoms: _237  and  _238
REMARK   99  A    between atoms: _238  and  _239
REMARK  100  A    between atoms: _239  and  _240
REMARK  101  A    between atoms: _240  and  _241
REMARK  102  A    between atoms: _245  and  _247
REMARK  103  A    between atoms: _247  and  _248
REMARK  104  A    between atoms: _247  and  _250
REMARK  105  A    between atoms: _250  and  _251
REMARK  106  A    between atoms: _257  and  _259
REMARK  107  A    between atoms: _259  and  _260
REMARK  108  A    between atoms: _259  and  _262
REMARK  109  A    between atoms: _262  and  _263
REMARK  110  A    between atoms: _269  and  _271
REMARK  111  A    between atoms: _271  and  _272
REMARK  112  A    between atoms: _271  and  _274
REMARK  113  A    between atoms: _274  and  _275
REMARK  114  A    between atoms: _278  and  _280
REMARK  115  A    between atoms: _280  and  _281
REMARK  116  A    between atoms: _280  and  _283
REMARK  117  A    between atoms: _283  and  _284
REMARK  118  A    between atoms: _286  and  _288
REMARK  119  A    between atoms: _288  and  _289
REMARK  120  A    between atoms: _288  and  _291
REMARK  121  A    between atoms: _291  and  _292
REMARK  122  A    between atoms: _302  and  _304
REMARK  123  A    between atoms: _304  and  _305
REMARK  124  A    between atoms: _307  and  _309
REMARK  125  A    between atoms: _309  and  _310
REMARK  126  A    between atoms: _309  and  _312
REMARK  127  A    between atoms: _312  and  _313
REMARK  128  A    between atoms: _316  and  _318
REMARK  129  A    between atoms: _318  and  _319
REMARK  130  A    between atoms: _318  and  _321
REMARK  131  A    between atoms: _321  and  _322
REMARK  132  A    between atoms: _325  and  _327
REMARK  133  A    between atoms: _327  and  _328
REMARK  134  A    between atoms: _330  and  _332
REMARK  135  A    between atoms: _332  and  _333
REMARK  136  A    between atoms: _332  and  _335
REMARK  137  A    between atoms: _335  and  _336
REMARK  138  A    between atoms: _339  and  _341
REMARK  139  A    between atoms: _341  and  _342
REMARK  140  A    between atoms: _345  and  _347
REMARK  141  A    between atoms: _347  and  _348
REMARK  142  A    between atoms: _347  and  _350
REMARK  143  A    between atoms: _350  and  _351
REMARK  144  A    between atoms: _356  and  _357
REMARK  145  A    between atoms: _359  and  _361
REMARK  146  A    between atoms: _361  and  _362
REMARK  147  A    between atoms: _361  and  _364
REMARK  148  A    between atoms: _364  and  _365
REMARK  149  A    between atoms: _365  and  _366
REMARK  150  A    between atoms: _369  and  _371
REMARK  151  A    between atoms: _371  and  _372
REMARK  152  A    between atoms: _371  and  _374
REMARK  153  A    between atoms: _374  and  _375
REMARK  154  A    between atoms: _378  and  _380
REMARK  155  A    between atoms: _380  and  _381
REMARK  156  A    between atoms: _384  and  _386
REMARK  157  A    between atoms: _386  and  _387
REMARK  158  A    between atoms: _386  and  _389
REMARK  159  A    between atoms: _389  and  _390
REMARK  160  A    between atoms: _390  and  _391
REMARK  161  A    between atoms: _391  and  _392
REMARK  162  A    between atoms: _401  and  _403
REMARK  163  A    between atoms: _403  and  _404
REMARK  164  A    between atoms: _403  and  _406
REMARK  165  A    between atoms: _406  and  _407
REMARK  166  A    between atoms: _417  and  _419
REMARK  167  A    between atoms: _419  and  _420
REMARK  168  A    between atoms: _419  and  _422
REMARK  169  A    between atoms: _422  and  _423
REMARK  170  A    between atoms: _428  and  _429
REMARK  171  A    between atoms: _431  and  _433
REMARK  172  A    between atoms: _433  and  _434
REMARK  173  A    between atoms: _433  and  _436
REMARK  174  A    between atoms: _436  and  _437
REMARK  175  A    between atoms: _442  and  _443
REMARK  176  A    between atoms: _445  and  _447
REMARK  177  A    between atoms: _447  and  _448
REMARK  178  A    between atoms: _447  and  _450
REMARK  179  A    between atoms: _450  and  _451
REMARK  180  A    between atoms: _451  and  _452
REMARK  181  A    between atoms: _452  and  _453
REMARK  182  A    between atoms: _453  and  _454
REMARK  183  A    between atoms: _458  and  _460
REMARK  184  A    between atoms: _460  and  _461
REMARK  185  A    between atoms: _460  and  _463
REMARK  186  A    between atoms: _463  and  _464
REMARK  187  A    between atoms: _467  and  _469
REMARK  188  A    between atoms: _469  and  _470
REMARK  189  A    between atoms: _469  and  _472
REMARK  190  A    between atoms: _475  and  _477
REMARK  191  A    between atoms: _477  and  _478
REMARK  192  A    between atoms: _477  and  _480
REMARK  193  A    between atoms: _480  and  _481
REMARK  194  A    between atoms: _484  and  _486
REMARK  195  A    between atoms: _486  and  _487
REMARK  196  A    between atoms: _486  and  _489
REMARK  197  A    between atoms: _489  and  _490
REMARK  198  A    between atoms: _492  and  _494
REMARK  199  A    between atoms: _494  and  _495
REMARK  200  A    between atoms: _497  and  _499
REMARK  201  A    between atoms: _499  and  _500
REMARK  202  A    between atoms: _499  and  _502
REMARK  203  A    between atoms: _502  and  _503
REMARK  204  A    between atoms: _506  and  _508
REMARK  205  A    between atoms: _508  and  _509
REMARK  206  A    between atoms: _508  and  _511
REMARK  207  A    between atoms: _511  and  _512
REMARK  208  A    between atoms: _515  and  _517
REMARK  209  A    between atoms: _517  and  _518
REMARK  210  A    between atoms: _517  and  _520
REMARK  211  A    between atoms: _520  and  _521
REMARK  212  A    between atoms: _526  and  _528
REMARK  213  A    between atoms: _528  and  _529
REMARK  214  A    between atoms: _528  and  _531
REMARK  215  A    between atoms: _531  and  _532
REMARK  216  A    between atoms: _532  and  _533
REMARK  217  A    between atoms: _533  and  _534
REMARK  218  A    between atoms: _543  and  _545
REMARK  219  A    between atoms: _545  and  _546
REMARK  220  A    between atoms: _545  and  _548
REMARK  221  A    between atoms: _548  and  _549
REMARK  222  A    between atoms: _549  and  _550
REMARK  223  A    between atoms: _550  and  _551
REMARK  224  A    between atoms: _560  and  _562
REMARK  225  A    between atoms: _562  and  _563
REMARK  226  A    between atoms: _562  and  _565
REMARK  227  A    between atoms: _565  and  _566
REMARK  228  A    between atoms: _568  and  _570
REMARK  229  A    between atoms: _570  and  _571
REMARK  230  A    between atoms: _570  and  _573
REMARK  231  A    between atoms: _573  and  _574
REMARK  232  A    between atoms: _574  and  _575
REMARK  233  A    between atoms: _580  and  _582
REMARK  234  A    between atoms: _582  and  _583
REMARK  235  A    between atoms: _582  and  _585
REMARK  236  A    between atoms: _585  and  _586
REMARK  237  A    between atoms: _589  and  _591
REMARK  238  A    between atoms: _591  and  _592
REMARK  239  A    between atoms: _591  and  _594
REMARK  240  A    between atoms: _594  and  _595
REMARK  241  A    between atoms: _598  and  _600
REMARK  242  A    between atoms: _600  and  _601
REMARK  243  A    between atoms: _600  and  _603
REMARK  244  A    between atoms: _606  and  _608
REMARK  245  A    between atoms: _608  and  _609
REMARK  246  A    between atoms: _611  and  _613
REMARK  247  A    between atoms: _613  and  _614
REMARK  248  A    between atoms: _617  and  _619
REMARK  249  A    between atoms: _619  and  _620
REMARK  250  A    between atoms: _619  and  _622
REMARK                            x       y       z     vdW  Elec       q    Type
REMARK                         _______ _______ _______ _____ _____    ______ ____
ROOT
ATOM      1  CA  THR A   1      18.589  16.877  33.094  0.00  0.00    +0.160 C 
ENDROOT
BRANCH   1   2
ATOM      2  N   THR A   1      19.431  18.068  33.192  0.00  0.00    -0.237 NA
ATOM      3  H   THR A   1      20.451  17.982  33.009  0.00  0.00    +0.142 HD
ENDBRANCH   1   2
BRANCH   1   4
ATOM      4  C   THR A   1      19.095  15.715  33.948  0.00  0.00    +0.227 C 
ATOM      5  O   THR A   1      18.900  14.548  33.602  0.00  0.00    -0.287 OA
ENDBRANCH   1   4
BRANCH   1   6
ATOM      6  CB  THR A   1      18.478  16.377  31.636  0.00  0.00    +0.134 C 
ATOM      7  CG2 THR A   1      17.769  17.407  30.766  0.00  0.00    +0.034 C 
BRANCH   6   8
ATOM      8  OG1 THR A   1      19.790  16.125  31.117  0.00  0.00    -0.383 OA
ATOM      9  HG1 THR A   1      20.319  16.961  31.141  0.00  0.00    +0.210 HD
ENDBRANCH   6   8
ENDBRANCH   1   6
TORSDOF 4
REMARK  Name = ../refined-set-2016/3lpi/3lpi_pocket.pdb
REMARK  250 active torsions:
REMARK  status: ('A' for Active; 'I' for Inactive)
REMARK    1  A    between atoms: _1  and  _3
REMARK    2  A    between atoms: _3  and  _4
REMARK    3  A    between atoms: _3  and  _6
REMARK    4  A    between atoms: _6  and  _7
REMARK    5  A    between atoms: _7  and  _8
REMARK    6  A    between atoms: _8  and  _9
REMARK    7  A    between atoms: _9  and  _10
REMARK    8  A    between atoms: _14  and  _16
REMARK    9  A    between atoms: _16  and  _17
REMARK   10  A    between atoms: _16  and  _19
REMARK   11  A    between atoms: _19  and  _20
REMARK   12  A    between atoms: _22  and  _24
REMARK   13  A    between atoms: _24  and  _25
REMARK   14  A    between atoms: _27  and  _29
REMARK   15  A    between atoms: _29  and  _30
REMARK   16  A    between atoms: _29  and  _32
REMARK   17  A    between atoms: _32  and  _33
REMARK   18  A    between atoms: _33  and  _34
REMARK   19  A    between atoms: _39  and  _41
REMARK   20  A    between atoms: _41  and  _42
REMARK   21  A    between atoms: _44  and  _46
REMARK   22  A    between atoms: _46  and  _47
REMARK   23  A    between atoms: _46  and  _49
REMARK   24  A    between atoms: _49  and  _50
REMARK   25  A    between atoms: _55  and  _56
REMARK   26  A    between atoms: _58  and  _60
REMARK   27  A    between atoms: _60  and  _61
REMARK   28  A    between atoms: _60  and  _63
REMARK   29  A    between atoms: _63  and  _64
REMARK   30  A    between atoms: _67  and  _69
REMARK   31  A    between atoms: _69  and  _70
REMARK   32  A    between atoms: _69  and  _72
REMARK   33  A    between atoms: _75  and  _77
REMARK   34  A    between atoms: _77  and  _78
REMARK   35  A    between atoms: _77  and  _80
REMARK   36  A    between atoms: _80  and  _81
REMARK   37  A    between atoms: _84  and  _86
REMARK   38  A    between atoms: _86  and  _87
REMARK   39  A    between atoms: _86  and  _89
REMARK   40  A    between atoms: _89  and  _90
REMARK   41  A    between atoms: _93  and  _95
REMARK   42  A    between atoms: _95  and  _96
REMARK   43  A    between atoms: _98  and  _100
REMARK   44  A    between atoms: _100  and  _101
REMARK   45  A    between atoms: _100  and  _103
REMARK   46  A    between atoms: _103  and  _104
REMARK   47  A    between atoms: _106  and  _108
REMARK   48  A    between atoms: _108  and  _109
REMARK   49  A    between atoms: _108  and  _111
REMARK   50  A    between atoms: _111  and  _112
REMARK   51  A    between atoms: _114  and  _116
REMARK   52  A    between atoms: _116  and  _117
REMARK   53  A    between atoms: _116  and  _119
REMARK   54  A    between atoms: _119  and  _120
REMARK   55  A    between atoms: _125  and  _127
REMARK   56  A    between atoms: _127  and  _128
REMARK   57  A    between atoms: _127  and  _130
REMARK   58  A    between atoms: _130  and  _131
REMARK   59  A    between atoms: _136  and  _137
REMARK   60  A    between atoms: _139  and  _141
REMARK   61  A    between atoms: _141  and  _142
REMARK   62  A    between atoms: _141  and  _144
REMARK   63  A    between atoms: _148  and  _149
REMARK   64  A    between atoms: _154  and  _156
REMARK   65  A    between atoms: _156  and  _157
REMARK   66  A    between atoms: _156  and  _159
REMARK   67  A    between atoms: _159  and  _160
REMARK   68  A    between atoms: _165  and  _166
REMARK   69  A    between atoms: _168  and  _170
REMARK   70  A    between atoms: _170  and  _171
REMARK   71  A    between atoms: _170  and  _173
REMARK   72  A    between atoms: _173  and  _174
REMARK   73  A    between atoms: _177  and  _179
REMARK   74  A    between atoms: _179  and  _180
REMARK   75  A    between atoms: _179  and  _182
REMARK   76  A    between atoms: _182  and  _183
REMARK   77  A    between atoms: _183  and  _184
REMARK   78  A    between atoms: _189  and  _191
REMARK   79  A    between atoms: _191  and  _192
REMARK   80  A    between atoms: _194  and  _196
REMARK   81  A    between atoms: _196  and  _197
REMARK   82  A    between atoms: _196  and  _199
REMARK   83  A    between atoms: _199  and  _200
REMARK   84  A    between atoms: _200  and  _201
REMARK   85  A    between atoms: _201  and  _202
REMARK   86  A    between atoms: _202  and  _203
REMARK   87  A    between atoms: _207  and  _209
REMARK   88  A    between atoms: _209  and  _210
REMARK   89  A    between atoms: _209  and  _212
REMARK   90  A    between atoms: _212  and  _213
REMARK   91  A    between atoms: _223  and  _225
REMARK   92  A    between atoms: _225  and  _226
REMARK   93  A    between atoms: _225  and  _228
REMARK   94  A    between atoms: _228  and  _229
REMARK   95  A    between atoms: _232  and  _234
REMARK   96  A    between atoms: _234  and  _235
REMARK   97  A    between atoms: _234  and  _237
REMARK   98  A    between atoms: _237  and  _238
REMARK   99  A    between atoms: _238  and  _239
REMARK  100  A    between atoms: _239  and  _240
REMARK  101  A    between atoms: _240  and  _241
REMARK  102  A    between atoms: _245  and  _247
REMARK  103  A    between atoms: _247  and  _248
REMARK  104  A    between atoms: _247  and  _250
REMARK  105  A    between atoms: _250  and  _251
REMARK  106  A    between atoms: _257  and  _259
REMARK  107  A    between atoms: _259  and  _260
REMARK  108  A    between atoms: _259  and  _262
REMARK  109  A    between atoms: _262  and  _263
REMARK  110  A    between atoms: _269  and  _271
REMARK  111  A    between atoms: _271  and  _272
REMARK  112  A    between atoms: _271  and  _274
REMARK  113  A    between atoms: _274  and  _275
REMARK  114  A    between atoms: _278  and  _280
REMARK  115  A    between atoms: _280  and  _281
REMARK  116  A    between atoms: _280  and  _283
REMARK  117  A    between atoms: _283  and  _284
REMARK  118  A    between atoms: _286  and  _288
REMARK  119  A    between atoms: _288  and  _289
REMARK  120  A    between atoms: _288  and  _291
REMARK  121  A    between atoms: _291  and  _292
REMARK  122  A    between atoms: _302  and  _304
REMARK  123  A    between atoms: _304  and  _305
REMARK  124  A    between atoms: _307  and  _309
REMARK  125  A    between atoms: _309  and  _310
REMARK  126  A    between atoms: _309  and  _312
REMARK  127  A    between atoms: _312  and  _313
REMARK  128  A    between atoms: _316  and  _318
REMARK  129  A    between atoms: _318  and  _319
REMARK  130  A    between atoms: _318  and  _321
REMARK  131  A    between atoms: _321  and  _322
REMARK  132  A    between atoms: _325  and  _327
REMARK  133  A    between atoms: _327  and  _328
REMARK  134  A    between atoms: _330  and  _332
REMARK  135  A    between atoms: _332  and  _333
REMARK  136  A    between atoms: _332  and  _335
REMARK  137  A    between atoms: _335  and  _336
REMARK  138  A    between atoms: _339  and  _341
REMARK  139  A    between atoms: _341  and  _342
REMARK  140  A    between atoms: _345  and  _347
REMARK  141  A    between atoms: _347  and  _348
REMARK  142  A    between atoms: _347  and  _350
REMARK  143  A    between atoms: _350  and  _351
REMARK  144  A    between atoms: _356  and  _357
REMARK  145  A    between atoms: _359  and  _361
REMARK  146  A    between atoms: _361  and  _362
REMARK  147  A    between atoms: _361  and  _364
REMARK  148  A    between atoms: _364  and  _365
REMARK  149  A    between atoms: _365  and  _366
REMARK  150  A    between atoms: _369  and  _371
REMARK  151  A    between atoms: _371  and  _372
REMARK  152  A    between atoms: _371  and  _374
REMARK  153  A    between atoms: _374  and  _375
REMARK  154  A    between atoms: _378  and  _380
REMARK  155  A    between atoms: _380  and  _381
REMARK  156  A    between atoms: _384  and  _386
REMARK  157  A    between atoms: _386  and  _387
REMARK  158  A    between atoms: _386  and  _389
REMARK  159  A    between atoms: _389  and  _390
REMARK  160  A    between atoms: _390  and  _391
REMARK  161  A    between atoms: _391  and  _392
REMARK  162  A    between atoms: _401  and  _403
REMARK  163  A    between atoms: _403  and  _404
REMARK  164  A    between atoms: _403  and  _406
REMARK  165  A    between atoms: _406  and  _407
REMARK  166  A    between atoms: _417  and  _419
REMARK  167  A    between atoms: _419  and  _420
REMARK  168  A    between atoms: _419  and  _422
REMARK  169  A    between atoms: _422  and  _423
REMARK  170  A    between atoms: _428  and  _429
REMARK  171  A    between atoms: _431  and  _433
REMARK  172  A    between atoms: _433  and  _434
REMARK  173  A    between atoms: _433  and  _436
REMARK  174  A    between atoms: _436  and  _437
REMARK  175  A    between atoms: _442  and  _443
REMARK  176  A    between atoms: _445  and  _447
REMARK  177  A    between atoms: _447  and  _448
REMARK  178  A    between atoms: _447  and  _450
REMARK  179  A    between atoms: _450  and  _451
REMARK  180  A    between atoms: _451  and  _452
REMARK  181  A    between atoms: _452  and  _453
REMARK  182  A    between atoms: _453  and  _454
REMARK  183  A    between atoms: _458  and  _460
REMARK  184  A    between atoms: _460  and  _461
REMARK  185  A    between atoms: _460  and  _463
REMARK  186  A    between atoms: _463  and  _464
REMARK  187  A    between atoms: _467  and  _469
REMARK  188  A    between atoms: _469  and  _470
REMARK  189  A    between atoms: _469  and  _472
REMARK  190  A    between atoms: _475  and  _477
REMARK  191  A    between atoms: _477  and  _478
REMARK  192  A    between atoms: _477  and  _480
REMARK  193  A    between atoms: _480  and  _481
REMARK  194  A    between atoms: _484  and  _486
REMARK  195  A    between atoms: _486  and  _487
REMARK  196  A    between atoms: _486  and  _489
REMARK  197  A    between atoms: _489  and  _490
REMARK  198  A    between atoms: _492  and  _494
REMARK  199  A    between atoms: _494  and  _495
REMARK  200  A    between atoms: _497  and  _499
REMARK  201  A    between atoms: _499  and  _500
REMARK  202  A    between atoms: _499  and  _502
REMARK  203  A    between atoms: _502  and  _503
REMARK  204  A    between atoms: _506  and  _508
REMARK  205  A    between atoms: _508  and  _509
REMARK  206  A    between atoms: _508  and  _511
REMARK  207  A    between atoms: _511  and  _512
REMARK  208  A    between atoms: _515  and  _517
REMARK  209  A    between atoms: _517  and  _518
REMARK  210  A    between atoms: _517  and  _520
REMARK  211  A    between atoms: _520  and  _521
REMARK  212  A    between atoms: _526  and  _528
REMARK  213  A    between atoms: _528  and  _529
REMARK  214  A    between atoms: _528  and  _531
REMARK  215  A    between atoms: _531  and  _532
REMARK  216  A    between atoms: _532  and  _533
REMARK  217  A    between atoms: _533  and  _534
REMARK  218  A    between atoms: _543  and  _545
REMARK  219  A    between atoms: _545  and  _546
REMARK  220  A    between atoms: _545  and  _548
REMARK  221  A    between atoms: _548  and  _549
REMARK  222  A    between atoms: _549  and  _550
REMARK  223  A    between atoms: _550  and  _551
REMARK  224  A    between atoms: _560  and  _562
REMARK  225  A    between atoms: _562  and  _563
REMARK  226  A    between atoms: _562  and  _565
REMARK  227  A    between atoms: _565  and  _566
REMARK  228  A    between atoms: _568  and  _570
REMARK  229  A    between atoms: _570  and  _571
REMARK  230  A    between atoms: _570  and  _573
REMARK  231  A    between atoms: _573  and  _574
REMARK  232  A    between atoms: _574  and  _575
REMARK  233  A    between atoms: _580  and  _582
REMARK  234  A    between atoms: _582  and  _583
REMARK  235  A    between atoms: _582  and  _585
REMARK  236  A    between atoms: _585  and  _586
REMARK  237  A    between atoms: _589  and  _591
REMARK  238  A    between atoms: _591  and  _592
REMARK  239  A    between atoms: _591  and  _594
REMARK  240  A    between atoms: _594  and  _595
REMARK  241  A    between atoms: _598  and  _600
REMARK  242  A    between atoms: _600  and  _601
REMARK  243  A    between atoms: _600  and  _603
REMARK  244  A    between atoms: _606  and  _608
REMARK  245  A    between atoms: _608  and  _609
REMARK  246  A    between atoms: _611  and  _613
REMARK  247  A    between atoms: _613  and  _614
REMARK  248  A    between atoms: _617  and  _619
REMARK  249  A    between atoms: _619  and  _620
REMARK  250  A    between atoms: _619  and  _622
REMARK                            x       y       z     vdW  Elec       q    Type
REMARK                         _______ _______ _______ _____ _____    ______ ____
ROOT
ATOM      1  C   THR A   1      23.584  12.122  35.141  0.00  0.00    +0.241 C 
ATOM      2  O   THR A   1      22.681  11.310  34.942  0.00  0.00    -0.274 OA
ATOM      3  N   VAL A   2      24.652  12.223  34.359  0.00  0.00    -0.298 N 
ATOM      4  H   VAL A   2      25.362  12.956  34.561  0.00  0.00    +0.150 HD
ENDROOT
BRANCH   1   5
ATOM      5  CA  THR A   1      23.514  13.100  36.306  0.00  0.00    +0.172 C 
BRANCH   5   6
ATOM      6  N   THR A   1      22.155  13.601  36.459  0.00  0.00    -0.236 NA
ATOM      7  H   THR A   1      21.548  13.209  37.207  0.00  0.00    +0.142 HD
ENDBRANCH   5   6
BRANCH   5   8
ATOM      8  CB  THR A   1      23.998  12.384  37.588  0.00  0.00    +0.135 C 
ATOM      9  CG2 THR A   1      25.315  11.660  37.342  0.00  0.00    +0.034 C 
BRANCH   8  10
ATOM     10  OG1 THR A   1      24.177  13.347  38.630  0.00  0.00    -0.383 OA
ATOM     11  HG1 THR A   1      24.487  12.889  39.451  0.00  0.00    +0.210 HD
ENDBRANCH   8  10
ENDBRANCH   5   8
ENDBRANCH   1   5
BRANCH   3  12
ATOM     12  CA  VAL A   2      24.851  11.334  33.229  0.00  0.00    +0.137 C 
BRANCH  12  13
ATOM     13  CB  VAL A   2      24.758  12.076  31.877  0.00  0.00    +0.026 C 
ATOM     14  CG2 VAL A   2      23.385  12.720  31.715  0.00  0.00    +0.002 C 
ATOM     15  CG1 VAL A   2      25.020  11.096  30.736  0.00  0.00    +0.002 C 
ENDBRANCH  12  13
BRANCH  12  16
ATOM     16  C   VAL A   2      26.239  10.731  33.345  0.00  0.00    +0.227 C 
ATOM     17  O   VAL A   2      27.239  11.438  33.224  0.00  0.00    -0.286 OA
ENDBRANCH  12  16
ENDBRANCH   3  12
TORSDOF 7
REMARK  Name = ../refined-set-2016/3lpi/3lpi_pocket.pdb
REMARK  250 active torsions:
REMARK  status: ('A' for Active; 'I' for Inactive)
REMARK    1  A    between atoms: _1  and  _3
REMARK    2  A    between atoms: _3  and  _4
REMARK    3  A    between atoms: _3  and  _6
REMARK    4  A    between atoms: _6  and  _7
REMARK    5  A    between atoms: _7  and  _8
REMARK    6  A    between atoms: _8  and  _9
REMARK    7  A    between atoms: _9  and  _10
REMARK    8  A    between atoms: _14  and  _16
REMARK    9  A    between atoms: _16  and  _17
REMARK   10  A    between atoms: _16  and  _19
REMARK   11  A    between atoms: _19  and  _20
REMARK   12  A    between atoms: _22  and  _24
REMARK   13  A    between atoms: _24  and  _25
REMARK   14  A    between atoms: _27  and  _29
REMARK   15  A    between atoms: _29  and  _30
REMARK   16  A    between atoms: _29  and  _32
REMARK   17  A    between atoms: _32  and  _33
REMARK   18  A    between atoms: _33  and  _34
REMARK   19  A    between atoms: _39  and  _41
REMARK   20  A    between atoms: _41  and  _42
REMARK   21  A    between atoms: _44  and  _46
REMARK   22  A    between atoms: _46  and  _47
REMARK   23  A    between atoms: _46  and  _49
REMARK   24  A    between atoms: _49  and  _50
REMARK   25  A    between atoms: _55  and  _56
REMARK   26  A    between atoms: _58  and  _60
REMARK   27  A    between atoms: _60  and  _61
REMARK   28  A    between atoms: _60  and  _63
REMARK   29  A    between atoms: _63  and  _64
REMARK   30  A    between atoms: _67  and  _69
REMARK   31  A    between atoms: _69  and  _70
REMARK   32  A    between atoms: _69  and  _72
REMARK   33  A    between atoms: _75  and  _77
REMARK   34  A    between atoms: _77  and  _78
REMARK   35  A    between atoms: _77  and  _80
REMARK   36  A    between atoms: _80  and  _81
REMARK   37  A    between atoms: _84  and  _86
REMARK   38  A    between atoms: _86  and  _87
REMARK   39  A    between atoms: _86  and  _89
REMARK   40  A    between atoms: _89  and  _90
REMARK   41  A    between atoms: _93  and  _95
REMARK   42  A    between atoms: _95  and  _96
REMARK   43  A    between atoms: _98  and  _100
REMARK   44  A    between atoms: _100  and  _101
REMARK   45  A    between atoms: _100  and  _103
REMARK   46  A    between atoms: _103  and  _104
REMARK   47  A    between atoms: _106  and  _108
REMARK   48  A    between atoms: _108  and  _109
REMARK   49  A    between atoms: _108  and  _111
REMARK   50  A    between atoms: _111  and  _112
REMARK   51  A    between atoms: _114  and  _116
REMARK   52  A    between atoms: _116  and  _117
REMARK   53  A    between atoms: _116  and  _119
REMARK   54  A    between atoms: _119  and  _120
REMARK   55  A    between atoms: _125  and  _127
REMARK   56  A    between atoms: _127  and  _128
REMARK   57  A    between atoms: _127  and  _130
REMARK   58  A    between atoms: _130  and  _131
REMARK   59  A    between atoms: _136  and  _137
REMARK   60  A    between atoms: _139  and  _141
REMARK   61  A    between atoms: _141  and  _142
REMARK   62  A    between atoms: _141  and  _144
REMARK   63  A    between atoms: _148  and  _149
REMARK   64  A    between atoms: _154  and  _156
REMARK   65  A    between atoms: _156  and  _157
REMARK   66  A    between atoms: _156  and  _159
REMARK   67  A    between atoms: _159  and  _160
REMARK   68  A    between atoms: _165  and  _166
REMARK   69  A    between atoms: _168  and  _170
REMARK   70  A    between atoms: _170  and  _171
REMARK   71  A    between atoms: _170  and  _173
REMARK   72  A    between atoms: _173  and  _174
REMARK   73  A    between atoms: _177  and  _179
REMARK   74  A    between atoms: _179  and  _180
REMARK   75  A    between atoms: _179  and  _182
REMARK   76  A    between atoms: _182  and  _183
REMARK   77  A    between atoms: _183  and  _184
REMARK   78  A    between atoms: _189  and  _191
REMARK   79  A    between atoms: _191  and  _192
REMARK   80  A    between atoms: _194  and  _196
REMARK   81  A    between atoms: _196  and  _197
REMARK   82  A    between atoms: _196  and  _199
REMARK   83  A    between atoms: _199  and  _200
REMARK   84  A    between atoms: _200  and  _201
REMARK   85  A    between atoms: _201  and  _202
REMARK   86  A    between atoms: _202  and  _203
REMARK   87  A    between atoms: _207  and  _209
REMARK   88  A    between atoms: _209  and  _210
REMARK   89  A    between atoms: _209  and  _212
REMARK   90  A    between atoms: _212  and  _213
REMARK   91  A    between atoms: _223  and  _225
REMARK   92  A    between atoms: _225  and  _226
REMARK   93  A    between atoms: _225  and  _228
REMARK   94  A    between atoms: _228  and  _229
REMARK   95  A    between atoms: _232  and  _234
REMARK   96  A    between atoms: _234  and  _235
REMARK   97  A    between atoms: _234  and  _237
REMARK   98  A    between atoms: _237  and  _238
REMARK   99  A    between atoms: _238  and  _239
REMARK  100  A    between atoms: _239  and  _240
REMARK  101  A    between atoms: _240  and  _241
REMARK  102  A    between atoms: _245  and  _247
REMARK  103  A    between atoms: _247  and  _248
REMARK  104  A    between atoms: _247  and  _250
REMARK  105  A    between atoms: _250  and  _251
REMARK  106  A    between atoms: _257  and  _259
REMARK  107  A    between atoms: _259  and  _260
REMARK  108  A    between atoms: _259  and  _262
REMARK  109  A    between atoms: _262  and  _263
REMARK  110  A    between atoms: _269  and  _271
REMARK  111  A    between atoms: _271  and  _272
REMARK  112  A    between atoms: _271  and  _274
REMARK  113  A    between atoms: _274  and  _275
REMARK  114  A    between atoms: _278  and  _280
REMARK  115  A    between atoms: _280  and  _281
REMARK  116  A    between atoms: _280  and  _283
REMARK  117  A    between atoms: _283  and  _284
REMARK  118  A    between atoms: _286  and  _288
REMARK  119  A    between atoms: _288  and  _289
REMARK  120  A    between atoms: _288  and  _291
REMARK  121  A    between atoms: _291  and  _292
REMARK  122  A    between atoms: _302  and  _304
REMARK  123  A    between atoms: _304  and  _305
REMARK  124  A    between atoms: _307  and  _309
REMARK  125  A    between atoms: _309  and  _310
REMARK  126  A    between atoms: _309  and  _312
REMARK  127  A    between atoms: _312  and  _313
REMARK  128  A    between atoms: _316  and  _318
REMARK  129  A    between atoms: _318  and  _319
REMARK  130  A    between atoms: _318  and  _321
REMARK  131  A    between atoms: _321  and  _322
REMARK  132  A    between atoms: _325  and  _327
REMARK  133  A    between atoms: _327  and  _328
REMARK  134  A    between atoms: _330  and  _332
REMARK  135  A    between atoms: _332  and  _333
REMARK  136  A    between atoms: _332  and  _335
REMARK  137  A    between atoms: _335  and  _336
REMARK  138  A    between atoms: _339  and  _341
REMARK  139  A    between atoms: _341  and  _342
REMARK  140  A    between atoms: _345  and  _347
REMARK  141  A    between atoms: _347  and  _348
REMARK  142  A    between atoms: _347  and  _350
REMARK  143  A    between atoms: _350  and  _351
REMARK  144  A    between atoms: _356  and  _357
REMARK  145  A    between atoms: _359  and  _361
REMARK  146  A    between atoms: _361  and  _362
REMARK  147  A    between atoms: _361  and  _364
REMARK  148  A    between atoms: _364  and  _365
REMARK  149  A    between atoms: _365  and  _366
REMARK  150  A    between atoms: _369  and  _371
REMARK  151  A    between atoms: _371  and  _372
REMARK  152  A    between atoms: _371  and  _374
REMARK  153  A    between atoms: _374  and  _375
REMARK  154  A    between atoms: _378  and  _380
REMARK  155  A    between atoms: _380  and  _381
REMARK  156  A    between atoms: _384  and  _386
REMARK  157  A    between atoms: _386  and  _387
REMARK  158  A    between atoms: _386  and  _389
REMARK  159  A    between atoms: _389  and  _390
REMARK  160  A    between atoms: _390  and  _391
REMARK  161  A    between atoms: _391  and  _392
REMARK  162  A    between atoms: _401  and  _403
REMARK  163  A    between atoms: _403  and  _404
REMARK  164  A    between atoms: _403  and  _406
REMARK  165  A    between atoms: _406  and  _407
REMARK  166  A    between atoms: _417  and  _419
REMARK  167  A    between atoms: _419  and  _420
REMARK  168  A    between atoms: _419  and  _422
REMARK  169  A    between atoms: _422  and  _423
REMARK  170  A    between atoms: _428  and  _429
REMARK  171  A    between atoms: _431  and  _433
REMARK  172  A    between atoms: _433  and  _434
REMARK  173  A    between atoms: _433  and  _436
REMARK  174  A    between atoms: _436  and  _437
REMARK  175  A    between atoms: _442  and  _443
REMARK  176  A    between atoms: _445  and  _447
REMARK  177  A    between atoms: _447  and  _448
REMARK  178  A    between atoms: _447  and  _450
REMARK  179  A    between atoms: _450  and  _451
REMARK  180  A    between atoms: _451  and  _452
REMARK  181  A    between atoms: _452  and  _453
REMARK  182  A    between atoms: _453  and  _454
REMARK  183  A    between atoms: _458  and  _460
REMARK  184  A    between atoms: _460  and  _461
REMARK  185  A    between atoms: _460  and  _463
REMARK  186  A    between atoms: _463  and  _464
REMARK  187  A    between atoms: _467  and  _469
REMARK  188  A    between atoms: _469  and  _470
REMARK  189  A    between atoms: _469  and  _472
REMARK  190  A    between atoms: _475  and  _477
REMARK  191  A    between atoms: _477  and  _478
REMARK  192  A    between atoms: _477  and  _480
REMARK  193  A    between atoms: _480  and  _481
REMARK  194  A    between atoms: _484  and  _486
REMARK  195  A    between atoms: _486  and  _487
REMARK  196  A    between atoms: _486  and  _489
REMARK  197  A    between atoms: _489  and  _490
REMARK  198  A    between atoms: _492  and  _494
REMARK  199  A    between atoms: _494  and  _495
REMARK  200  A    between atoms: _497  and  _499
REMARK  201  A    between atoms: _499  and  _500
REMARK  202  A    between atoms: _499  and  _502
REMARK  203  A    between atoms: _502  and  _503
REMARK  204  A    between atoms: _506  and  _508
REMARK  205  A    between atoms: _508  and  _509
REMARK  206  A    between atoms: _508  and  _511
REMARK  207  A    between atoms: _511  and  _512
REMARK  208  A    between atoms: _515  and  _517
REMARK  209  A    between atoms: _517  and  _518
REMARK  210  A    between atoms: _517  and  _520
REMARK  211  A    between atoms: _520  and  _521
REMARK  212  A    between atoms: _526  and  _528
REMARK  213  A    between atoms: _528  and  _529
REMARK  214  A    between atoms: _528  and  _531
REMARK  215  A    between atoms: _531  and  _532
REMARK  216  A    between atoms: _532  and  _533
REMARK  217  A    between atoms: _533  and  _534
REMARK  218  A    between atoms: _543  and  _545
REMARK  219  A    between atoms: _545  and  _546
REMARK  220  A    between atoms: _545  and  _548
REMARK  221  A    between atoms: _548  and  _549
REMARK  222  A    between atoms: _549  and  _550
REMARK  223  A    between atoms: _550  and  _551
REMARK  224  A    between atoms: _560  and  _562
REMARK  225  A    between atoms: _562  and  _563
REMARK  226  A    between atoms: _562  and  _565
REMARK  227  A    between atoms: _565  and  _566
REMARK  228  A    between atoms: _568  and  _570
REMARK  229  A    between atoms: _570  and  _571
REMARK  230  A    between atoms: _570  and  _573
REMARK  231  A    between atoms: _573  and  _574
REMARK  232  A    between atoms: _574  and  _575
REMARK  233  A    between atoms: _580  and  _582
REMARK  234  A    between atoms: _582  and  _583
REMARK  235  A    between atoms: _582  and  _585
REMARK  236  A    between atoms: _585  and  _586
REMARK  237  A    between atoms: _589  and  _591
REMARK  238  A    between atoms: _591  and  _592
REMARK  239  A    between atoms: _591  and  _594
REMARK  240  A    between atoms: _594  and  _595
REMARK  241  A    between atoms: _598  and  _600
REMARK  242  A    between atoms: _600  and  _601
REMARK  243  A    between atoms: _600  and  _603
REMARK  244  A    between atoms: _606  and  _608
REMARK  245  A    between atoms: _608  and  _609
REMARK  246  A    between atoms: _611  and  _613
REMARK  247  A    between atoms: _613  and  _614
REMARK  248  A    between atoms: _617  and  _619
REMARK  249  A    between atoms: _619  and  _620
REMARK  250  A    between atoms: _619  and  _622
REMARK                            x       y       z     vdW  Elec       q    Type
REMARK                         _______ _______ _______ _____ _____    ______ ____
ROOT
ATOM      1  C   ALA A   2      33.068   7.265  29.080  0.00  0.00    +0.241 C 
ATOM      2  N   VAL A   3      33.460   8.486  29.437  0.00  0.00    -0.298 N 
ATOM      3  H   VAL A   3      32.872   9.313  29.209  0.00  0.00    +0.150 HD
ATOM      4  O   ALA A   2      33.732   6.262  29.336  0.00  0.00    -0.273 OA
ENDROOT
BRANCH   1   5
ATOM      5  CA  ALA A   2      31.750   7.128  28.318  0.00  0.00    +0.149 C 
ATOM      6  CB  ALA A   2      31.990   7.345  26.835  0.00  0.00    +0.031 C 
BRANCH   5   9
ATOM      7  C   GLY A   1      30.229   8.037  30.015  0.00  0.00    +0.240 C 
ATOM      8  O   GLY A   1      30.698   7.362  30.926  0.00  0.00    -0.274 OA
ATOM      9  N   ALA A   2      30.674   7.998  28.763  0.00  0.00    -0.297 N 
ATOM     10  H   ALA A   2      30.228   8.625  28.063  0.00  0.00    +0.150 HD
BRANCH   7  11
ATOM     11  CA  GLY A   1      29.085   8.998  30.248  0.00  0.00    +0.169 C 
BRANCH  11  12
ATOM     12  N   GLY A   1      28.668   9.217  31.618  0.00  0.00    -0.236 NA
ATOM     13  H   GLY A   1      28.927  10.108  32.088  0.00  0.00    +0.142 HD
ENDBRANCH  11  12
ENDBRANCH   7  11
ENDBRANCH   5   9
ENDBRANCH   1   5
BRANCH   2  14
ATOM     14  CA  VAL A   3      34.726   8.655  30.153  0.00  0.00    +0.137 C 
BRANCH  14  15
ATOM     15  CB  VAL A   3      35.116  10.150  30.314  0.00  0.00    +0.026 C 
ATOM     16  CG2 VAL A   3      34.060  10.900  31.118  0.00  0.00    +0.002 C 
ATOM     17  CG1 VAL A   3      35.306  10.781  28.936  0.00  0.00    +0.002 C 
ENDBRANCH  14  15
BRANCH  14  18
ATOM     18  C   VAL A   3      34.689   7.974  31.518  0.00  0.00    +0.227 C 
ATOM     19  O   VAL A   3      35.716   7.531  32.018  0.00  0.00    -0.286 OA
ENDBRANCH  14  18
ENDBRANCH   2  14
TORSDOF 7
REMARK  Name = ../refined-set-2016/3lpi/3lpi_pocket.pdb
REMARK  250 active torsions:
REMARK  status: ('A' for Active; 'I' for Inactive)
REMARK    1  A    between atoms: _1  and  _3
REMARK    2  A    between atoms: _3  and  _4
REMARK    3  A    between atoms: _3  and  _6
REMARK    4  A    between atoms: _6  and  _7
REMARK    5  A    between atoms: _7  and  _8
REMARK    6  A    between atoms: _8  and  _9
REMARK    7  A    between atoms: _9  and  _10
REMARK    8  A    between atoms: _14  and  _16
REMARK    9  A    between atoms: _16  and  _17
REMARK   10  A    between atoms: _16  and  _19
REMARK   11  A    between atoms: _19  and  _20
REMARK   12  A    between atoms: _22  and  _24
REMARK   13  A    between atoms: _24  and  _25
REMARK   14  A    between atoms: _27  and  _29
REMARK   15  A    between atoms: _29  and  _30
REMARK   16  A    between atoms: _29  and  _32
REMARK   17  A    between atoms: _32  and  _33
REMARK   18  A    between atoms: _33  and  _34
REMARK   19  A    between atoms: _39  and  _41
REMARK   20  A    between atoms: _41  and  _42
REMARK   21  A    between atoms: _44  and  _46
REMARK   22  A    between atoms: _46  and  _47
REMARK   23  A    between atoms: _46  and  _49
REMARK   24  A    between atoms: _49  and  _50
REMARK   25  A    between atoms: _55  and  _56
REMARK   26  A    between atoms: _58  and  _60
REMARK   27  A    between atoms: _60  and  _61
REMARK   28  A    between atoms: _60  and  _63
REMARK   29  A    between atoms: _63  and  _64
REMARK   30  A    between atoms: _67  and  _69
REMARK   31  A    between atoms: _69  and  _70
REMARK   32  A    between atoms: _69  and  _72
REMARK   33  A    between atoms: _75  and  _77
REMARK   34  A    between atoms: _77  and  _78
REMARK   35  A    between atoms: _77  and  _80
REMARK   36  A    between atoms: _80  and  _81
REMARK   37  A    between atoms: _84  and  _86
REMARK   38  A    between atoms: _86  and  _87
REMARK   39  A    between atoms: _86  and  _89
REMARK   40  A    between atoms: _89  and  _90
REMARK   41  A    between atoms: _93  and  _95
REMARK   42  A    between atoms: _95  and  _96
REMARK   43  A    between atoms: _98  and  _100
REMARK   44  A    between atoms: _100  and  _101
REMARK   45  A    between atoms: _100  and  _103
REMARK   46  A    between atoms: _103  and  _104
REMARK   47  A    between atoms: _106  and  _108
REMARK   48  A    between atoms: _108  and  _109
REMARK   49  A    between atoms: _108  and  _111
REMARK   50  A    between atoms: _111  and  _112
REMARK   51  A    between atoms: _114  and  _116
REMARK   52  A    between atoms: _116  and  _117
REMARK   53  A    between atoms: _116  and  _119
REMARK   54  A    between atoms: _119  and  _120
REMARK   55  A    between atoms: _125  and  _127
REMARK   56  A    between atoms: _127  and  _128
REMARK   57  A    between atoms: _127  and  _130
REMARK   58  A    between atoms: _130  and  _131
REMARK   59  A    between atoms: _136  and  _137
REMARK   60  A    between atoms: _139  and  _141
REMARK   61  A    between atoms: _141  and  _142
REMARK   62  A    between atoms: _141  and  _144
REMARK   63  A    between atoms: _148  and  _149
REMARK   64  A    between atoms: _154  and  _156
REMARK   65  A    between atoms: _156  and  _157
REMARK   66  A    between atoms: _156  and  _159
REMARK   67  A    between atoms: _159  and  _160
REMARK   68  A    between atoms: _165  and  _166
REMARK   69  A    between atoms: _168  and  _170
REMARK   70  A    between atoms: _170  and  _171
REMARK   71  A    between atoms: _170  and  _173
REMARK   72  A    between atoms: _173  and  _174
REMARK   73  A    between atoms: _177  and  _179
REMARK   74  A    between atoms: _179  and  _180
REMARK   75  A    between atoms: _179  and  _182
REMARK   76  A    between atoms: _182  and  _183
REMARK   77  A    between atoms: _183  and  _184
REMARK   78  A    between atoms: _189  and  _191
REMARK   79  A    between atoms: _191  and  _192
REMARK   80  A    between atoms: _194  and  _196
REMARK   81  A    between atoms: _196  and  _197
REMARK   82  A    between atoms: _196  and  _199
REMARK   83  A    between atoms: _199  and  _200
REMARK   84  A    between atoms: _200  and  _201
REMARK   85  A    between atoms: _201  and  _202
REMARK   86  A    between atoms: _202  and  _203
REMARK   87  A    between atoms: _207  and  _209
REMARK   88  A    between atoms: _209  and  _210
REMARK   89  A    between atoms: _209  and  _212
REMARK   90  A    between atoms: _212  and  _213
REMARK   91  A    between atoms: _223  and  _225
REMARK   92  A    between atoms: _225  and  _226
REMARK   93  A    between atoms: _225  and  _228
REMARK   94  A    between atoms: _228  and  _229
REMARK   95  A    between atoms: _232  and  _234
REMARK   96  A    between atoms: _234  and  _235
REMARK   97  A    between atoms: _234  and  _237
REMARK   98  A    between atoms: _237  and  _238
REMARK   99  A    between atoms: _238  and  _239
REMARK  100  A    between atoms: _239  and  _240
REMARK  101  A    between atoms: _240  and  _241
REMARK  102  A    between atoms: _245  and  _247
REMARK  103  A    between atoms: _247  and  _248
REMARK  104  A    between atoms: _247  and  _250
REMARK  105  A    between atoms: _250  and  _251
REMARK  106  A    between atoms: _257  and  _259
REMARK  107  A    between atoms: _259  and  _260
REMARK  108  A    between atoms: _259  and  _262
REMARK  109  A    between atoms: _262  and  _263
REMARK  110  A    between atoms: _269  and  _271
REMARK  111  A    between atoms: _271  and  _272
REMARK  112  A    between atoms: _271  and  _274
REMARK  113  A    between atoms: _274  and  _275
REMARK  114  A    between atoms: _278  and  _280
REMARK  115  A    between atoms: _280  and  _281
REMARK  116  A    between atoms: _280  and  _283
REMARK  117  A    between atoms: _283  and  _284
REMARK  118  A    between atoms: _286  and  _288
REMARK  119  A    between atoms: _288  and  _289
REMARK  120  A    between atoms: _288  and  _291
REMARK  121  A    between atoms: _291  and  _292
REMARK  122  A    between atoms: _302  and  _304
REMARK  123  A    between atoms: _304  and  _305
REMARK  124  A    between atoms: _307  and  _309
REMARK  125  A    between atoms: _309  and  _310
REMARK  126  A    between atoms: _309  and  _312
REMARK  127  A    between atoms: _312  and  _313
REMARK  128  A    between atoms: _316  and  _318
REMARK  129  A    between atoms: _318  and  _319
REMARK  130  A    between atoms: _318  and  _321
REMARK  131  A    between atoms: _321  and  _322
REMARK  132  A    between atoms: _325  and  _327
REMARK  133  A    between atoms: _327  and  _328
REMARK  134  A    between atoms: _330  and  _332
REMARK  135  A    between atoms: _332  and  _333
REMARK  136  A    between atoms: _332  and  _335
REMARK  137  A    between atoms: _335  and  _336
REMARK  138  A    between atoms: _339  and  _341
REMARK  139  A    between atoms: _341  and  _342
REMARK  140  A    between atoms: _345  and  _347
REMARK  141  A    between atoms: _347  and  _348
REMARK  142  A    between atoms: _347  and  _350
REMARK  143  A    between atoms: _350  and  _351
REMARK  144  A    between atoms: _356  and  _357
REMARK  145  A    between atoms: _359  and  _361
REMARK  146  A    between atoms: _361  and  _362
REMARK  147  A    between atoms: _361  and  _364
REMARK  148  A    between atoms: _364  and  _365
REMARK  149  A    between atoms: _365  and  _366
REMARK  150  A    between atoms: _369  and  _371
REMARK  151  A    between atoms: _371  and  _372
REMARK  152  A    between atoms: _371  and  _374
REMARK  153  A    between atoms: _374  and  _375
REMARK  154  A    between atoms: _378  and  _380
REMARK  155  A    between atoms: _380  and  _381
REMARK  156  A    between atoms: _384  and  _386
REMARK  157  A    between atoms: _386  and  _387
REMARK  158  A    between atoms: _386  and  _389
REMARK  159  A    between atoms: _389  and  _390
REMARK  160  A    between atoms: _390  and  _391
REMARK  161  A    between atoms: _391  and  _392
REMARK  162  A    between atoms: _401  and  _403
REMARK  163  A    between atoms: _403  and  _404
REMARK  164  A    between atoms: _403  and  _406
REMARK  165  A    between atoms: _406  and  _407
REMARK  166  A    between atoms: _417  and  _419
REMARK  167  A    between atoms: _419  and  _420
REMARK  168  A    between atoms: _419  and  _422
REMARK  169  A    between atoms: _422  and  _423
REMARK  170  A    between atoms: _428  and  _429
REMARK  171  A    between atoms: _431  and  _433
REMARK  172  A    between atoms: _433  and  _434
REMARK  173  A    between atoms: _433  and  _436
REMARK  174  A    between atoms: _436  and  _437
REMARK  175  A    between atoms: _442  and  _443
REMARK  176  A    between atoms: _445  and  _447
REMARK  177  A    between atoms: _447  and  _448
REMARK  178  A    between atoms: _447  and  _450
REMARK  179  A    between atoms: _450  and  _451
REMARK  180  A    between atoms: _451  and  _452
REMARK  181  A    between atoms: _452  and  _453
REMARK  182  A    between atoms: _453  and  _454
REMARK  183  A    between atoms: _458  and  _460
REMARK  184  A    between atoms: _460  and  _461
REMARK  185  A    between atoms: _460  and  _463
REMARK  186  A    between atoms: _463  and  _464
REMARK  187  A    between atoms: _467  and  _469
REMARK  188  A    between atoms: _469  and  _470
REMARK  189  A    between atoms: _469  and  _472
REMARK  190  A    between atoms: _475  and  _477
REMARK  191  A    between atoms: _477  and  _478
REMARK  192  A    between atoms: _477  and  _480
REMARK  193  A    between atoms: _480  and  _481
REMARK  194  A    between atoms: _484  and  _486
REMARK  195  A    between atoms: _486  and  _487
REMARK  196  A    between atoms: _486  and  _489
REMARK  197  A    between atoms: _489  and  _490
REMARK  198  A    between atoms: _492  and  _494
REMARK  199  A    between atoms: _494  and  _495
REMARK  200  A    between atoms: _497  and  _499
REMARK  201  A    between atoms: _499  and  _500
REMARK  202  A    between atoms: _499  and  _502
REMARK  203  A    between atoms: _502  and  _503
REMARK  204  A    between atoms: _506  and  _508
REMARK  205  A    between atoms: _508  and  _509
REMARK  206  A    between atoms: _508  and  _511
REMARK  207  A    between atoms: _511  and  _512
REMARK  208  A    between atoms: _515  and  _517
REMARK  209  A    between atoms: _517  and  _518
REMARK  210  A    between atoms: _517  and  _520
REMARK  211  A    between atoms: _520  and  _521
REMARK  212  A    between atoms: _526  and  _528
REMARK  213  A    between atoms: _528  and  _529
REMARK  214  A    between atoms: _528  and  _531
REMARK  215  A    between atoms: _531  and  _532
REMARK  216  A    between atoms: _532  and  _533
REMARK  217  A    between atoms: _533  and  _534
REMARK  218  A    between atoms: _543  and  _545
REMARK  219  A    between atoms: _545  and  _546
REMARK  220  A    between atoms: _545  and  _548
REMARK  221  A    between atoms: _548  and  _549
REMARK  222  A    between atoms: _549  and  _550
REMARK  223  A    between atoms: _550  and  _551
REMARK  224  A    between atoms: _560  and  _562
REMARK  225  A    between atoms: _562  and  _563
REMARK  226  A    between atoms: _562  and  _565
REMARK  227  A    between atoms: _565  and  _566
REMARK  228  A    between atoms: _568  and  _570
REMARK  229  A    between atoms: _570  and  _571
REMARK  230  A    between atoms: _570  and  _573
REMARK  231  A    between atoms: _573  and  _574
REMARK  232  A    between atoms: _574  and  _575
REMARK  233  A    between atoms: _580  and  _582
REMARK  234  A    between atoms: _582  and  _583
REMARK  235  A    between atoms: _582  and  _585
REMARK  236  A    between atoms: _585  and  _586
REMARK  237  A    between atoms: _589  and  _591
REMARK  238  A    between atoms: _591  and  _592
REMARK  239  A    between atoms: _591  and  _594
REMARK  240  A    between atoms: _594  and  _595
REMARK  241  A    between atoms: _598  and  _600
REMARK  242  A    between atoms: _600  and  _601
REMARK  243  A    between atoms: _600  and  _603
REMARK  244  A    between atoms: _606  and  _608
REMARK  245  A    between atoms: _608  and  _609
REMARK  246  A    between atoms: _611  and  _613
REMARK  247  A    between atoms: _613  and  _614
REMARK  248  A    between atoms: _617  and  _619
REMARK  249  A    between atoms: _619  and  _620
REMARK  250  A    between atoms: _619  and  _622
REMARK                            x       y       z     vdW  Elec       q    Type
REMARK                         _______ _______ _______ _____ _____    ______ ____
ROOT
ATOM      1  O   HOH     1       8.034  10.578  22.687  0.00  0.00    +0.000 OA
ENDROOT
TORSDOF 0
REMARK  Name = ../refined-set-2016/3lpi/3lpi_pocket.pdb
REMARK  250 active torsions:
REMARK  status: ('A' for Active; 'I' for Inactive)
REMARK    1  A    between atoms: _1  and  _3
REMARK    2  A    between atoms: _3  and  _4
REMARK    3  A    between atoms: _3  and  _6
REMARK    4  A    between atoms: _6  and  _7
REMARK    5  A    between atoms: _7  and  _8
REMARK    6  A    between atoms: _8  and  _9
REMARK    7  A    between atoms: _9  and  _10
REMARK    8  A    between atoms: _14  and  _16
REMARK    9  A    between atoms: _16  and  _17
REMARK   10  A    between atoms: _16  and  _19
REMARK   11  A    between atoms: _19  and  _20
REMARK   12  A    between atoms: _22  and  _24
REMARK   13  A    between atoms: _24  and  _25
REMARK   14  A    between atoms: _27  and  _29
REMARK   15  A    between atoms: _29  and  _30
REMARK   16  A    between atoms: _29  and  _32
REMARK   17  A    between atoms: _32  and  _33
REMARK   18  A    between atoms: _33  and  _34
REMARK   19  A    between atoms: _39  and  _41
REMARK   20  A    between atoms: _41  and  _42
REMARK   21  A    between atoms: _44  and  _46
REMARK   22  A    between atoms: _46  and  _47
REMARK   23  A    between atoms: _46  and  _49
REMARK   24  A    between atoms: _49  and  _50
REMARK   25  A    between atoms: _55  and  _56
REMARK   26  A    between atoms: _58  and  _60
REMARK   27  A    between atoms: _60  and  _61
REMARK   28  A    between atoms: _60  and  _63
REMARK   29  A    between atoms: _63  and  _64
REMARK   30  A    between atoms: _67  and  _69
REMARK   31  A    between atoms: _69  and  _70
REMARK   32  A    between atoms: _69  and  _72
REMARK   33  A    between atoms: _75  and  _77
REMARK   34  A    between atoms: _77  and  _78
REMARK   35  A    between atoms: _77  and  _80
REMARK   36  A    between atoms: _80  and  _81
REMARK   37  A    between atoms: _84  and  _86
REMARK   38  A    between atoms: _86  and  _87
REMARK   39  A    between atoms: _86  and  _89
REMARK   40  A    between atoms: _89  and  _90
REMARK   41  A    between atoms: _93  and  _95
REMARK   42  A    between atoms: _95  and  _96
REMARK   43  A    between atoms: _98  and  _100
REMARK   44  A    between atoms: _100  and  _101
REMARK   45  A    between atoms: _100  and  _103
REMARK   46  A    between atoms: _103  and  _104
REMARK   47  A    between atoms: _106  and  _108
REMARK   48  A    between atoms: _108  and  _109
REMARK   49  A    between atoms: _108  and  _111
REMARK   50  A    between atoms: _111  and  _112
REMARK   51  A    between atoms: _114  and  _116
REMARK   52  A    between atoms: _116  and  _117
REMARK   53  A    between atoms: _116  and  _119
REMARK   54  A    between atoms: _119  and  _120
REMARK   55  A    between atoms: _125  and  _127
REMARK   56  A    between atoms: _127  and  _128
REMARK   57  A    between atoms: _127  and  _130
REMARK   58  A    between atoms: _130  and  _131
REMARK   59  A    between atoms: _136  and  _137
REMARK   60  A    between atoms: _139  and  _141
REMARK   61  A    between atoms: _141  and  _142
REMARK   62  A    between atoms: _141  and  _144
REMARK   63  A    between atoms: _148  and  _149
REMARK   64  A    between atoms: _154  and  _156
REMARK   65  A    between atoms: _156  and  _157
REMARK   66  A    between atoms: _156  and  _159
REMARK   67  A    between atoms: _159  and  _160
REMARK   68  A    between atoms: _165  and  _166
REMARK   69  A    between atoms: _168  and  _170
REMARK   70  A    between atoms: _170  and  _171
REMARK   71  A    between atoms: _170  and  _173
REMARK   72  A    between atoms: _173  and  _174
REMARK   73  A    between atoms: _177  and  _179
REMARK   74  A    between atoms: _179  and  _180
REMARK   75  A    between atoms: _179  and  _182
REMARK   76  A    between atoms: _182  and  _183
REMARK   77  A    between atoms: _183  and  _184
REMARK   78  A    between atoms: _189  and  _191
REMARK   79  A    between atoms: _191  and  _192
REMARK   80  A    between atoms: _194  and  _196
REMARK   81  A    between atoms: _196  and  _197
REMARK   82  A    between atoms: _196  and  _199
REMARK   83  A    between atoms: _199  and  _200
REMARK   84  A    between atoms: _200  and  _201
REMARK   85  A    between atoms: _201  and  _202
REMARK   86  A    between atoms: _202  and  _203
REMARK   87  A    between atoms: _207  and  _209
REMARK   88  A    between atoms: _209  and  _210
REMARK   89  A    between atoms: _209  and  _212
REMARK   90  A    between atoms: _212  and  _213
REMARK   91  A    between atoms: _223  and  _225
REMARK   92  A    between atoms: _225  and  _226
REMARK   93  A    between atoms: _225  and  _228
REMARK   94  A    between atoms: _228  and  _229
REMARK   95  A    between atoms: _232  and  _234
REMARK   96  A    between atoms: _234  and  _235
REMARK   97  A    between atoms: _234  and  _237
REMARK   98  A    between atoms: _237  and  _238
REMARK   99  A    between atoms: _238  and  _239
REMARK  100  A    between atoms: _239  and  _240
REMARK  101  A    between atoms: _240  and  _241
REMARK  102  A    between atoms: _245  and  _247
REMARK  103  A    between atoms: _247  and  _248
REMARK  104  A    between atoms: _247  and  _250
REMARK  105  A    between atoms: _250  and  _251
REMARK  106  A    between atoms: _257  and  _259
REMARK  107  A    between atoms: _259  and  _260
REMARK  108  A    between atoms: _259  and  _262
REMARK  109  A    between atoms: _262  and  _263
REMARK  110  A    between atoms: _269  and  _271
REMARK  111  A    between atoms: _271  and  _272
REMARK  112  A    between atoms: _271  and  _274
REMARK  113  A    between atoms: _274  and  _275
REMARK  114  A    between atoms: _278  and  _280
REMARK  115  A    between atoms: _280  and  _281
REMARK  116  A    between atoms: _280  and  _283
REMARK  117  A    between atoms: _283  and  _284
REMARK  118  A    between atoms: _286  and  _288
REMARK  119  A    between atoms: _288  and  _289
REMARK  120  A    between atoms: _288  and  _291
REMARK  121  A    between atoms: _291  and  _292
REMARK  122  A    between atoms: _302  and  _304
REMARK  123  A    between atoms: _304  and  _305
REMARK  124  A    between atoms: _307  and  _309
REMARK  125  A    between atoms: _309  and  _310
REMARK  126  A    between atoms: _309  and  _312
REMARK  127  A    between atoms: _312  and  _313
REMARK  128  A    between atoms: _316  and  _318
REMARK  129  A    between atoms: _318  and  _319
REMARK  130  A    between atoms: _318  and  _321
REMARK  131  A    between atoms: _321  and  _322
REMARK  132  A    between atoms: _325  and  _327
REMARK  133  A    between atoms: _327  and  _328
REMARK  134  A    between atoms: _330  and  _332
REMARK  135  A    between atoms: _332  and  _333
REMARK  136  A    between atoms: _332  and  _335
REMARK  137  A    between atoms: _335  and  _336
REMARK  138  A    between atoms: _339  and  _341
REMARK  139  A    between atoms: _341  and  _342
REMARK  140  A    between atoms: _345  and  _347
REMARK  141  A    between atoms: _347  and  _348
REMARK  142  A    between atoms: _347  and  _350
REMARK  143  A    between atoms: _350  and  _351
REMARK  144  A    between atoms: _356  and  _357
REMARK  145  A    between atoms: _359  and  _361
REMARK  146  A    between atoms: _361  and  _362
REMARK  147  A    between atoms: _361  and  _364
REMARK  148  A    between atoms: _364  and  _365
REMARK  149  A    between atoms: _365  and  _366
REMARK  150  A    between atoms: _369  and  _371
REMARK  151  A    between atoms: _371  and  _372
REMARK  152  A    between atoms: _371  and  _374
REMARK  153  A    between atoms: _374  and  _375
REMARK  154  A    between atoms: _378  and  _380
REMARK  155  A    between atoms: _380  and  _381
REMARK  156  A    between atoms: _384  and  _386
REMARK  157  A    between atoms: _386  and  _387
REMARK  158  A    between atoms: _386  and  _389
REMARK  159  A    between atoms: _389  and  _390
REMARK  160  A    between atoms: _390  and  _391
REMARK  161  A    between atoms: _391  and  _392
REMARK  162  A    between atoms: _401  and  _403
REMARK  163  A    between atoms: _403  and  _404
REMARK  164  A    between atoms: _403  and  _406
REMARK  165  A    between atoms: _406  and  _407
REMARK  166  A    between atoms: _417  and  _419
REMARK  167  A    between atoms: _419  and  _420
REMARK  168  A    between atoms: _419  and  _422
REMARK  169  A    between atoms: _422  and  _423
REMARK  170  A    between atoms: _428  and  _429
REMARK  171  A    between atoms: _431  and  _433
REMARK  172  A    between atoms: _433  and  _434
REMARK  173  A    between atoms: _433  and  _436
REMARK  174  A    between atoms: _436  and  _437
REMARK  175  A    between atoms: _442  and  _443
REMARK  176  A    between atoms: _445  and  _447
REMARK  177  A    between atoms: _447  and  _448
REMARK  178  A    between atoms: _447  and  _450
REMARK  179  A    between atoms: _450  and  _451
REMARK  180  A    between atoms: _451  and  _452
REMARK  181  A    between atoms: _452  and  _453
REMARK  182  A    between atoms: _453  and  _454
REMARK  183  A    between atoms: _458  and  _460
REMARK  184  A    between atoms: _460  and  _461
REMARK  185  A    between atoms: _460  and  _463
REMARK  186  A    between atoms: _463  and  _464
REMARK  187  A    between atoms: _467  and  _469
REMARK  188  A    between atoms: _469  and  _470
REMARK  189  A    between atoms: _469  and  _472
REMARK  190  A    between atoms: _475  and  _477
REMARK  191  A    between atoms: _477  and  _478
REMARK  192  A    between atoms: _477  and  _480
REMARK  193  A    between atoms: _480  and  _481
REMARK  194  A    between atoms: _484  and  _486
REMARK  195  A    between atoms: _486  and  _487
REMARK  196  A    between atoms: _486  and  _489
REMARK  197  A    between atoms: _489  and  _490
REMARK  198  A    between atoms: _492  and  _494
REMARK  199  A    between atoms: _494  and  _495
REMARK  200  A    between atoms: _497  and  _499
REMARK  201  A    between atoms: _499  and  _500
REMARK  202  A    between atoms: _499  and  _502
REMARK  203  A    between atoms: _502  and  _503
REMARK  204  A    between atoms: _506  and  _508
REMARK  205  A    between atoms: _508  and  _509
REMARK  206  A    between atoms: _508  and  _511
REMARK  207  A    between atoms: _511  and  _512
REMARK  208  A    between atoms: _515  and  _517
REMARK  209  A    between atoms: _517  and  _518
REMARK  210  A    between atoms: _517  and  _520
REMARK  211  A    between atoms: _520  and  _521
REMARK  212  A    between atoms: _526  and  _528
REMARK  213  A    between atoms: _528  and  _529
REMARK  214  A    between atoms: _528  and  _531
REMARK  215  A    between atoms: _531  and  _532
REMARK  216  A    between atoms: _532  and  _533
REMARK  217  A    between atoms: _533  and  _534
REMARK  218  A    between atoms: _543  and  _545
REMARK  219  A    between atoms: _545  and  _546
REMARK  220  A    between atoms: _545  and  _548
REMARK  221  A    between atoms: _548  and  _549
REMARK  222  A    between atoms: _549  and  _550
REMARK  223  A    between atoms: _550  and  _551
REMARK  224  A    between atoms: _560  and  _562
REMARK  225  A    between atoms: _562  and  _563
REMARK  226  A    between atoms: _562  and  _565
REMARK  227  A    between atoms: _565  and  _566
REMARK  228  A    between atoms: _568  and  _570
REMARK  229  A    between atoms: _570  and  _571
REMARK  230  A    between atoms: _570  and  _573
REMARK  231  A    between atoms: _573  and  _574
REMARK  232  A    between atoms: _574  and  _575
REMARK  233  A    between atoms: _580  and  _582
REMARK  234  A    between atoms: _582  and  _583
REMARK  235  A    between atoms: _582  and  _585
REMARK  236  A    between atoms: _585  and  _586
REMARK  237  A    between atoms: _589  and  _591
REMARK  238  A    between atoms: _591  and  _592
REMARK  239  A    between atoms: _591  and  _594
REMARK  240  A    between atoms: _594  and  _595
REMARK  241  A    between atoms: _598  and  _600
REMARK  242  A    between atoms: _600  and  _601
REMARK  243  A    between atoms: _600  and  _603
REMARK  244  A    between atoms: _606  and  _608
REMARK  245  A    between atoms: _608  and  _609
REMARK  246  A    between atoms: _611  and  _613
REMARK  247  A    between atoms: _613  and  _614
REMARK  248  A    between atoms: _617  and  _619
REMARK  249  A    between atoms: _619  and  _620
REMARK  250  A    between atoms: _619  and  _622
REMARK                            x       y       z     vdW  Elec       q    Type
REMARK                         _______ _______ _______ _____ _____    ______ ____
ROOT
ATOM      1  O   HOH     1      33.998  15.452  14.122  0.00  0.00    +0.000 OA
ENDROOT
TORSDOF 0
REMARK  Name = ../refined-set-2016/3lpi/3lpi_pocket.pdb
REMARK  250 active torsions:
REMARK  status: ('A' for Active; 'I' for Inactive)
REMARK    1  A    between atoms: _1  and  _3
REMARK    2  A    between atoms: _3  and  _4
REMARK    3  A    between atoms: _3  and  _6
REMARK    4  A    between atoms: _6  and  _7
REMARK    5  A    between atoms: _7  and  _8
REMARK    6  A    between atoms: _8  and  _9
REMARK    7  A    between atoms: _9  and  _10
REMARK    8  A    between atoms: _14  and  _16
REMARK    9  A    between atoms: _16  and  _17
REMARK   10  A    between atoms: _16  and  _19
REMARK   11  A    between atoms: _19  and  _20
REMARK   12  A    between atoms: _22  and  _24
REMARK   13  A    between atoms: _24  and  _25
REMARK   14  A    between atoms: _27  and  _29
REMARK   15  A    between atoms: _29  and  _30
REMARK   16  A    between atoms: _29  and  _32
REMARK   17  A    between atoms: _32  and  _33
REMARK   18  A    between atoms: _33  and  _34
REMARK   19  A    between atoms: _39  and  _41
REMARK   20  A    between atoms: _41  and  _42
REMARK   21  A    between atoms: _44  and  _46
REMARK   22  A    between atoms: _46  and  _47
REMARK   23  A    between atoms: _46  and  _49
REMARK   24  A    between atoms: _49  and  _50
REMARK   25  A    between atoms: _55  and  _56
REMARK   26  A    between atoms: _58  and  _60
REMARK   27  A    between atoms: _60  and  _61
REMARK   28  A    between atoms: _60  and  _63
REMARK   29  A    between atoms: _63  and  _64
REMARK   30  A    between atoms: _67  and  _69
REMARK   31  A    between atoms: _69  and  _70
REMARK   32  A    between atoms: _69  and  _72
REMARK   33  A    between atoms: _75  and  _77
REMARK   34  A    between atoms: _77  and  _78
REMARK   35  A    between atoms: _77  and  _80
REMARK   36  A    between atoms: _80  and  _81
REMARK   37  A    between atoms: _84  and  _86
REMARK   38  A    between atoms: _86  and  _87
REMARK   39  A    between atoms: _86  and  _89
REMARK   40  A    between atoms: _89  and  _90
REMARK   41  A    between atoms: _93  and  _95
REMARK   42  A    between atoms: _95  and  _96
REMARK   43  A    between atoms: _98  and  _100
REMARK   44  A    between atoms: _100  and  _101
REMARK   45  A    between atoms: _100  and  _103
REMARK   46  A    between atoms: _103  and  _104
REMARK   47  A    between atoms: _106  and  _108
REMARK   48  A    between atoms: _108  and  _109
REMARK   49  A    between atoms: _108  and  _111
REMARK   50  A    between atoms: _111  and  _112
REMARK   51  A    between atoms: _114  and  _116
REMARK   52  A    between atoms: _116  and  _117
REMARK   53  A    between atoms: _116  and  _119
REMARK   54  A    between atoms: _119  and  _120
REMARK   55  A    between atoms: _125  and  _127
REMARK   56  A    between atoms: _127  and  _128
REMARK   57  A    between atoms: _127  and  _130
REMARK   58  A    between atoms: _130  and  _131
REMARK   59  A    between atoms: _136  and  _137
REMARK   60  A    between atoms: _139  and  _141
REMARK   61  A    between atoms: _141  and  _142
REMARK   62  A    between atoms: _141  and  _144
REMARK   63  A    between atoms: _148  and  _149
REMARK   64  A    between atoms: _154  and  _156
REMARK   65  A    between atoms: _156  and  _157
REMARK   66  A    between atoms: _156  and  _159
REMARK   67  A    between atoms: _159  and  _160
REMARK   68  A    between atoms: _165  and  _166
REMARK   69  A    between atoms: _168  and  _170
REMARK   70  A    between atoms: _170  and  _171
REMARK   71  A    between atoms: _170  and  _173
REMARK   72  A    between atoms: _173  and  _174
REMARK   73  A    between atoms: _177  and  _179
REMARK   74  A    between atoms: _179  and  _180
REMARK   75  A    between atoms: _179  and  _182
REMARK   76  A    between atoms: _182  and  _183
REMARK   77  A    between atoms: _183  and  _184
REMARK   78  A    between atoms: _189  and  _191
REMARK   79  A    between atoms: _191  and  _192
REMARK   80  A    between atoms: _194  and  _196
REMARK   81  A    between atoms: _196  and  _197
REMARK   82  A    between atoms: _196  and  _199
REMARK   83  A    between atoms: _199  and  _200
REMARK   84  A    between atoms: _200  and  _201
REMARK   85  A    between atoms: _201  and  _202
REMARK   86  A    between atoms: _202  and  _203
REMARK   87  A    between atoms: _207  and  _209
REMARK   88  A    between atoms: _209  and  _210
REMARK   89  A    between atoms: _209  and  _212
REMARK   90  A    between atoms: _212  and  _213
REMARK   91  A    between atoms: _223  and  _225
REMARK   92  A    between atoms: _225  and  _226
REMARK   93  A    between atoms: _225  and  _228
REMARK   94  A    between atoms: _228  and  _229
REMARK   95  A    between atoms: _232  and  _234
REMARK   96  A    between atoms: _234  and  _235
REMARK   97  A    between atoms: _234  and  _237
REMARK   98  A    between atoms: _237  and  _238
REMARK   99  A    between atoms: _238  and  _239
REMARK  100  A    between atoms: _239  and  _240
REMARK  101  A    between atoms: _240  and  _241
REMARK  102  A    between atoms: _245  and  _247
REMARK  103  A    between atoms: _247  and  _248
REMARK  104  A    between atoms: _247  and  _250
REMARK  105  A    between atoms: _250  and  _251
REMARK  106  A    between atoms: _257  and  _259
REMARK  107  A    between atoms: _259  and  _260
REMARK  108  A    between atoms: _259  and  _262
REMARK  109  A    between atoms: _262  and  _263
REMARK  110  A    between atoms: _269  and  _271
REMARK  111  A    between atoms: _271  and  _272
REMARK  112  A    between atoms: _271  and  _274
REMARK  113  A    between atoms: _274  and  _275
REMARK  114  A    between atoms: _278  and  _280
REMARK  115  A    between atoms: _280  and  _281
REMARK  116  A    between atoms: _280  and  _283
REMARK  117  A    between atoms: _283  and  _284
REMARK  118  A    between atoms: _286  and  _288
REMARK  119  A    between atoms: _288  and  _289
REMARK  120  A    between atoms: _288  and  _291
REMARK  121  A    between atoms: _291  and  _292
REMARK  122  A    between atoms: _302  and  _304
REMARK  123  A    between atoms: _304  and  _305
REMARK  124  A    between atoms: _307  and  _309
REMARK  125  A    between atoms: _309  and  _310
REMARK  126  A    between atoms: _309  and  _312
REMARK  127  A    between atoms: _312  and  _313
REMARK  128  A    between atoms: _316  and  _318
REMARK  129  A    between atoms: _318  and  _319
REMARK  130  A    between atoms: _318  and  _321
REMARK  131  A    between atoms: _321  and  _322
REMARK  132  A    between atoms: _325  and  _327
REMARK  133  A    between atoms: _327  and  _328
REMARK  134  A    between atoms: _330  and  _332
REMARK  135  A    between atoms: _332  and  _333
REMARK  136  A    between atoms: _332  and  _335
REMARK  137  A    between atoms: _335  and  _336
REMARK  138  A    between atoms: _339  and  _341
REMARK  139  A    between atoms: _341  and  _342
REMARK  140  A    between atoms: _345  and  _347
REMARK  141  A    between atoms: _347  and  _348
REMARK  142  A    between atoms: _347  and  _350
REMARK  143  A    between atoms: _350  and  _351
REMARK  144  A    between atoms: _356  and  _357
REMARK  145  A    between atoms: _359  and  _361
REMARK  146  A    between atoms: _361  and  _362
REMARK  147  A    between atoms: _361  and  _364
REMARK  148  A    between atoms: _364  and  _365
REMARK  149  A    between atoms: _365  and  _366
REMARK  150  A    between atoms: _369  and  _371
REMARK  151  A    between atoms: _371  and  _372
REMARK  152  A    between atoms: _371  and  _374
REMARK  153  A    between atoms: _374  and  _375
REMARK  154  A    between atoms: _378  and  _380
REMARK  155  A    between atoms: _380  and  _381
REMARK  156  A    between atoms: _384  and  _386
REMARK  157  A    between atoms: _386  and  _387
REMARK  158  A    between atoms: _386  and  _389
REMARK  159  A    between atoms: _389  and  _390
REMARK  160  A    between atoms: _390  and  _391
REMARK  161  A    between atoms: _391  and  _392
REMARK  162  A    between atoms: _401  and  _403
REMARK  163  A    between atoms: _403  and  _404
REMARK  164  A    between atoms: _403  and  _406
REMARK  165  A    between atoms: _406  and  _407
REMARK  166  A    between atoms: _417  and  _419
REMARK  167  A    between atoms: _419  and  _420
REMARK  168  A    between atoms: _419  and  _422
REMARK  169  A    between atoms: _422  and  _423
REMARK  170  A    between atoms: _428  and  _429
REMARK  171  A    between atoms: _431  and  _433
REMARK  172  A    between atoms: _433  and  _434
REMARK  173  A    between atoms: _433  and  _436
REMARK  174  A    between atoms: _436  and  _437
REMARK  175  A    between atoms: _442  and  _443
REMARK  176  A    between atoms: _445  and  _447
REMARK  177  A    between atoms: _447  and  _448
REMARK  178  A    between atoms: _447  and  _450
REMARK  179  A    between atoms: _450  and  _451
REMARK  180  A    between atoms: _451  and  _452
REMARK  181  A    between atoms: _452  and  _453
REMARK  182  A    between atoms: _453  and  _454
REMARK  183  A    between atoms: _458  and  _460
REMARK  184  A    between atoms: _460  and  _461
REMARK  185  A    between atoms: _460  and  _463
REMARK  186  A    between atoms: _463  and  _464
REMARK  187  A    between atoms: _467  and  _469
REMARK  188  A    between atoms: _469  and  _470
REMARK  189  A    between atoms: _469  and  _472
REMARK  190  A    between atoms: _475  and  _477
REMARK  191  A    between atoms: _477  and  _478
REMARK  192  A    between atoms: _477  and  _480
REMARK  193  A    between atoms: _480  and  _481
REMARK  194  A    between atoms: _484  and  _486
REMARK  195  A    between atoms: _486  and  _487
REMARK  196  A    between atoms: _486  and  _489
REMARK  197  A    between atoms: _489  and  _490
REMARK  198  A    between atoms: _492  and  _494
REMARK  199  A    between atoms: _494  and  _495
REMARK  200  A    between atoms: _497  and  _499
REMARK  201  A    between atoms: _499  and  _500
REMARK  202  A    between atoms: _499  and  _502
REMARK  203  A    between atoms: _502  and  _503
REMARK  204  A    between atoms: _506  and  _508
REMARK  205  A    between atoms: _508  and  _509
REMARK  206  A    between atoms: _508  and  _511
REMARK  207  A    between atoms: _511  and  _512
REMARK  208  A    between atoms: _515  and  _517
REMARK  209  A    between atoms: _517  and  _518
REMARK  210  A    between atoms: _517  and  _520
REMARK  211  A    between atoms: _520  and  _521
REMARK  212  A    between atoms: _526  and  _528
REMARK  213  A    between atoms: _528  and  _529
REMARK  214  A    between atoms: _528  and  _531
REMARK  215  A    between atoms: _531  and  _532
REMARK  216  A    between atoms: _532  and  _533
REMARK  217  A    between atoms: _533  and  _534
REMARK  218  A    between atoms: _543  and  _545
REMARK  219  A    between atoms: _545  and  _546
REMARK  220  A    between atoms: _545  and  _548
REMARK  221  A    between atoms: _548  and  _549
REMARK  222  A    between atoms: _549  and  _550
REMARK  223  A    between atoms: _550  and  _551
REMARK  224  A    between atoms: _560  and  _562
REMARK  225  A    between atoms: _562  and  _563
REMARK  226  A    between atoms: _562  and  _565
REMARK  227  A    between atoms: _565  and  _566
REMARK  228  A    between atoms: _568  and  _570
REMARK  229  A    between atoms: _570  and  _571
REMARK  230  A    between atoms: _570  and  _573
REMARK  231  A    between atoms: _573  and  _574
REMARK  232  A    between atoms: _574  and  _575
REMARK  233  A    between atoms: _580  and  _582
REMARK  234  A    between atoms: _582  and  _583
REMARK  235  A    between atoms: _582  and  _585
REMARK  236  A    between atoms: _585  and  _586
REMARK  237  A    between atoms: _589  and  _591
REMARK  238  A    between atoms: _591  and  _592
REMARK  239  A    between atoms: _591  and  _594
REMARK  240  A    between atoms: _594  and  _595
REMARK  241  A    between atoms: _598  and  _600
REMARK  242  A    between atoms: _600  and  _601
REMARK  243  A    between atoms: _600  and  _603
REMARK  244  A    between atoms: _606  and  _608
REMARK  245  A    between atoms: _608  and  _609
REMARK  246  A    between atoms: _611  and  _613
REMARK  247  A    between atoms: _613  and  _614
REMARK  248  A    between atoms: _617  and  _619
REMARK  249  A    between atoms: _619  and  _620
REMARK  250  A    between atoms: _619  and  _622
REMARK                            x       y       z     vdW  Elec       q    Type
REMARK                         _______ _______ _______ _____ _____    ______ ____
ROOT
ATOM      1  O   HOH     1      37.722  12.940  19.976  0.00  0.00    +0.000 OA
ENDROOT
TORSDOF 0
REMARK  Name = ../refined-set-2016/3lpi/3lpi_pocket.pdb
REMARK  250 active torsions:
REMARK  status: ('A' for Active; 'I' for Inactive)
REMARK    1  A    between atoms: _1  and  _3
REMARK    2  A    between atoms: _3  and  _4
REMARK    3  A    between atoms: _3  and  _6
REMARK    4  A    between atoms: _6  and  _7
REMARK    5  A    between atoms: _7  and  _8
REMARK    6  A    between atoms: _8  and  _9
REMARK    7  A    between atoms: _9  and  _10
REMARK    8  A    between atoms: _14  and  _16
REMARK    9  A    between atoms: _16  and  _17
REMARK   10  A    between atoms: _16  and  _19
REMARK   11  A    between atoms: _19  and  _20
REMARK   12  A    between atoms: _22  and  _24
REMARK   13  A    between atoms: _24  and  _25
REMARK   14  A    between atoms: _27  and  _29
REMARK   15  A    between atoms: _29  and  _30
REMARK   16  A    between atoms: _29  and  _32
REMARK   17  A    between atoms: _32  and  _33
REMARK   18  A    between atoms: _33  and  _34
REMARK   19  A    between atoms: _39  and  _41
REMARK   20  A    between atoms: _41  and  _42
REMARK   21  A    between atoms: _44  and  _46
REMARK   22  A    between atoms: _46  and  _47
REMARK   23  A    between atoms: _46  and  _49
REMARK   24  A    between atoms: _49  and  _50
REMARK   25  A    between atoms: _55  and  _56
REMARK   26  A    between atoms: _58  and  _60
REMARK   27  A    between atoms: _60  and  _61
REMARK   28  A    between atoms: _60  and  _63
REMARK   29  A    between atoms: _63  and  _64
REMARK   30  A    between atoms: _67  and  _69
REMARK   31  A    between atoms: _69  and  _70
REMARK   32  A    between atoms: _69  and  _72
REMARK   33  A    between atoms: _75  and  _77
REMARK   34  A    between atoms: _77  and  _78
REMARK   35  A    between atoms: _77  and  _80
REMARK   36  A    between atoms: _80  and  _81
REMARK   37  A    between atoms: _84  and  _86
REMARK   38  A    between atoms: _86  and  _87
REMARK   39  A    between atoms: _86  and  _89
REMARK   40  A    between atoms: _89  and  _90
REMARK   41  A    between atoms: _93  and  _95
REMARK   42  A    between atoms: _95  and  _96
REMARK   43  A    between atoms: _98  and  _100
REMARK   44  A    between atoms: _100  and  _101
REMARK   45  A    between atoms: _100  and  _103
REMARK   46  A    between atoms: _103  and  _104
REMARK   47  A    between atoms: _106  and  _108
REMARK   48  A    between atoms: _108  and  _109
REMARK   49  A    between atoms: _108  and  _111
REMARK   50  A    between atoms: _111  and  _112
REMARK   51  A    between atoms: _114  and  _116
REMARK   52  A    between atoms: _116  and  _117
REMARK   53  A    between atoms: _116  and  _119
REMARK   54  A    between atoms: _119  and  _120
REMARK   55  A    between atoms: _125  and  _127
REMARK   56  A    between atoms: _127  and  _128
REMARK   57  A    between atoms: _127  and  _130
REMARK   58  A    between atoms: _130  and  _131
REMARK   59  A    between atoms: _136  and  _137
REMARK   60  A    between atoms: _139  and  _141
REMARK   61  A    between atoms: _141  and  _142
REMARK   62  A    between atoms: _141  and  _144
REMARK   63  A    between atoms: _148  and  _149
REMARK   64  A    between atoms: _154  and  _156
REMARK   65  A    between atoms: _156  and  _157
REMARK   66  A    between atoms: _156  and  _159
REMARK   67  A    between atoms: _159  and  _160
REMARK   68  A    between atoms: _165  and  _166
REMARK   69  A    between atoms: _168  and  _170
REMARK   70  A    between atoms: _170  and  _171
REMARK   71  A    between atoms: _170  and  _173
REMARK   72  A    between atoms: _173  and  _174
REMARK   73  A    between atoms: _177  and  _179
REMARK   74  A    between atoms: _179  and  _180
REMARK   75  A    between atoms: _179  and  _182
REMARK   76  A    between atoms: _182  and  _183
REMARK   77  A    between atoms: _183  and  _184
REMARK   78  A    between atoms: _189  and  _191
REMARK   79  A    between atoms: _191  and  _192
REMARK   80  A    between atoms: _194  and  _196
REMARK   81  A    between atoms: _196  and  _197
REMARK   82  A    between atoms: _196  and  _199
REMARK   83  A    between atoms: _199  and  _200
REMARK   84  A    between atoms: _200  and  _201
REMARK   85  A    between atoms: _201  and  _202
REMARK   86  A    between atoms: _202  and  _203
REMARK   87  A    between atoms: _207  and  _209
REMARK   88  A    between atoms: _209  and  _210
REMARK   89  A    between atoms: _209  and  _212
REMARK   90  A    between atoms: _212  and  _213
REMARK   91  A    between atoms: _223  and  _225
REMARK   92  A    between atoms: _225  and  _226
REMARK   93  A    between atoms: _225  and  _228
REMARK   94  A    between atoms: _228  and  _229
REMARK   95  A    between atoms: _232  and  _234
REMARK   96  A    between atoms: _234  and  _235
REMARK   97  A    between atoms: _234  and  _237
REMARK   98  A    between atoms: _237  and  _238
REMARK   99  A    between atoms: _238  and  _239
REMARK  100  A    between atoms: _239  and  _240
REMARK  101  A    between atoms: _240  and  _241
REMARK  102  A    between atoms: _245  and  _247
REMARK  103  A    between atoms: _247  and  _248
REMARK  104  A    between atoms: _247  and  _250
REMARK  105  A    between atoms: _250  and  _251
REMARK  106  A    between atoms: _257  and  _259
REMARK  107  A    between atoms: _259  and  _260
REMARK  108  A    between atoms: _259  and  _262
REMARK  109  A    between atoms: _262  and  _263
REMARK  110  A    between atoms: _269  and  _271
REMARK  111  A    between atoms: _271  and  _272
REMARK  112  A    between atoms: _271  and  _274
REMARK  113  A    between atoms: _274  and  _275
REMARK  114  A    between atoms: _278  and  _280
REMARK  115  A    between atoms: _280  and  _281
REMARK  116  A    between atoms: _280  and  _283
REMARK  117  A    between atoms: _283  and  _284
REMARK  118  A    between atoms: _286  and  _288
REMARK  119  A    between atoms: _288  and  _289
REMARK  120  A    between atoms: _288  and  _291
REMARK  121  A    between atoms: _291  and  _292
REMARK  122  A    between atoms: _302  and  _304
REMARK  123  A    between atoms: _304  and  _305
REMARK  124  A    between atoms: _307  and  _309
REMARK  125  A    between atoms: _309  and  _310
REMARK  126  A    between atoms: _309  and  _312
REMARK  127  A    between atoms: _312  and  _313
REMARK  128  A    between atoms: _316  and  _318
REMARK  129  A    between atoms: _318  and  _319
REMARK  130  A    between atoms: _318  and  _321
REMARK  131  A    between atoms: _321  and  _322
REMARK  132  A    between atoms: _325  and  _327
REMARK  133  A    between atoms: _327  and  _328
REMARK  134  A    between atoms: _330  and  _332
REMARK  135  A    between atoms: _332  and  _333
REMARK  136  A    between atoms: _332  and  _335
REMARK  137  A    between atoms: _335  and  _336
REMARK  138  A    between atoms: _339  and  _341
REMARK  139  A    between atoms: _341  and  _342
REMARK  140  A    between atoms: _345  and  _347
REMARK  141  A    between atoms: _347  and  _348
REMARK  142  A    between atoms: _347  and  _350
REMARK  143  A    between atoms: _350  and  _351
REMARK  144  A    between atoms: _356  and  _357
REMARK  145  A    between atoms: _359  and  _361
REMARK  146  A    between atoms: _361  and  _362
REMARK  147  A    between atoms: _361  and  _364
REMARK  148  A    between atoms: _364  and  _365
REMARK  149  A    between atoms: _365  and  _366
REMARK  150  A    between atoms: _369  and  _371
REMARK  151  A    between atoms: _371  and  _372
REMARK  152  A    between atoms: _371  and  _374
REMARK  153  A    between atoms: _374  and  _375
REMARK  154  A    between atoms: _378  and  _380
REMARK  155  A    between atoms: _380  and  _381
REMARK  156  A    between atoms: _384  and  _386
REMARK  157  A    between atoms: _386  and  _387
REMARK  158  A    between atoms: _386  and  _389
REMARK  159  A    between atoms: _389  and  _390
REMARK  160  A    between atoms: _390  and  _391
REMARK  161  A    between atoms: _391  and  _392
REMARK  162  A    between atoms: _401  and  _403
REMARK  163  A    between atoms: _403  and  _404
REMARK  164  A    between atoms: _403  and  _406
REMARK  165  A    between atoms: _406  and  _407
REMARK  166  A    between atoms: _417  and  _419
REMARK  167  A    between atoms: _419  and  _420
REMARK  168  A    between atoms: _419  and  _422
REMARK  169  A    between atoms: _422  and  _423
REMARK  170  A    between atoms: _428  and  _429
REMARK  171  A    between atoms: _431  and  _433
REMARK  172  A    between atoms: _433  and  _434
REMARK  173  A    between atoms: _433  and  _436
REMARK  174  A    between atoms: _436  and  _437
REMARK  175  A    between atoms: _442  and  _443
REMARK  176  A    between atoms: _445  and  _447
REMARK  177  A    between atoms: _447  and  _448
REMARK  178  A    between atoms: _447  and  _450
REMARK  179  A    between atoms: _450  and  _451
REMARK  180  A    between atoms: _451  and  _452
REMARK  181  A    between atoms: _452  and  _453
REMARK  182  A    between atoms: _453  and  _454
REMARK  183  A    between atoms: _458  and  _460
REMARK  184  A    between atoms: _460  and  _461
REMARK  185  A    between atoms: _460  and  _463
REMARK  186  A    between atoms: _463  and  _464
REMARK  187  A    between atoms: _467  and  _469
REMARK  188  A    between atoms: _469  and  _470
REMARK  189  A    between atoms: _469  and  _472
REMARK  190  A    between atoms: _475  and  _477
REMARK  191  A    between atoms: _477  and  _478
REMARK  192  A    between atoms: _477  and  _480
REMARK  193  A    between atoms: _480  and  _481
REMARK  194  A    between atoms: _484  and  _486
REMARK  195  A    between atoms: _486  and  _487
REMARK  196  A    between atoms: _486  and  _489
REMARK  197  A    between atoms: _489  and  _490
REMARK  198  A    between atoms: _492  and  _494
REMARK  199  A    between atoms: _494  and  _495
REMARK  200  A    between atoms: _497  and  _499
REMARK  201  A    between atoms: _499  and  _500
REMARK  202  A    between atoms: _499  and  _502
REMARK  203  A    between atoms: _502  and  _503
REMARK  204  A    between atoms: _506  and  _508
REMARK  205  A    between atoms: _508  and  _509
REMARK  206  A    between atoms: _508  and  _511
REMARK  207  A    between atoms: _511  and  _512
REMARK  208  A    between atoms: _515  and  _517
REMARK  209  A    between atoms: _517  and  _518
REMARK  210  A    between atoms: _517  and  _520
REMARK  211  A    between atoms: _520  and  _521
REMARK  212  A    between atoms: _526  and  _528
REMARK  213  A    between atoms: _528  and  _529
REMARK  214  A    between atoms: _528  and  _531
REMARK  215  A    between atoms: _531  and  _532
REMARK  216  A    between atoms: _532  and  _533
REMARK  217  A    between atoms: _533  and  _534
REMARK  218  A    between atoms: _543  and  _545
REMARK  219  A    between atoms: _545  and  _546
REMARK  220  A    between atoms: _545  and  _548
REMARK  221  A    between atoms: _548  and  _549
REMARK  222  A    between atoms: _549  and  _550
REMARK  223  A    between atoms: _550  and  _551
REMARK  224  A    between atoms: _560  and  _562
REMARK  225  A    between atoms: _562  and  _563
REMARK  226  A    between atoms: _562  and  _565
REMARK  227  A    between atoms: _565  and  _566
REMARK  228  A    between atoms: _568  and  _570
REMARK  229  A    between atoms: _570  and  _571
REMARK  230  A    between atoms: _570  and  _573
REMARK  231  A    between atoms: _573  and  _574
REMARK  232  A    between atoms: _574  and  _575
REMARK  233  A    between atoms: _580  and  _582
REMARK  234  A    between atoms: _582  and  _583
REMARK  235  A    between atoms: _582  and  _585
REMARK  236  A    between atoms: _585  and  _586
REMARK  237  A    between atoms: _589  and  _591
REMARK  238  A    between atoms: _591  and  _592
REMARK  239  A    between atoms: _591  and  _594
REMARK  240  A    between atoms: _594  and  _595
REMARK  241  A    between atoms: _598  and  _600
REMARK  242  A    between atoms: _600  and  _601
REMARK  243  A    between atoms: _600  and  _603
REMARK  244  A    between atoms: _606  and  _608
REMARK  245  A    between atoms: _608  and  _609
REMARK  246  A    between atoms: _611  and  _613
REMARK  247  A    between atoms: _613  and  _614
REMARK  248  A    between atoms: _617  and  _619
REMARK  249  A    between atoms: _619  and  _620
REMARK  250  A    between atoms: _619  and  _622
REMARK                            x       y       z     vdW  Elec       q    Type
REMARK                         _______ _______ _______ _____ _____    ______ ____
ROOT
ATOM      1  O   HOH     1      20.516   5.191  30.378  0.00  0.00    +0.000 OA
ENDROOT
TORSDOF 0
REMARK  Name = ../refined-set-2016/3lpi/3lpi_pocket.pdb
REMARK  250 active torsions:
REMARK  status: ('A' for Active; 'I' for Inactive)
REMARK    1  A    between atoms: _1  and  _3
REMARK    2  A    between atoms: _3  and  _4
REMARK    3  A    between atoms: _3  and  _6
REMARK    4  A    between atoms: _6  and  _7
REMARK    5  A    between atoms: _7  and  _8
REMARK    6  A    between atoms: _8  and  _9
REMARK    7  A    between atoms: _9  and  _10
REMARK    8  A    between atoms: _14  and  _16
REMARK    9  A    between atoms: _16  and  _17
REMARK   10  A    between atoms: _16  and  _19
REMARK   11  A    between atoms: _19  and  _20
REMARK   12  A    between atoms: _22  and  _24
REMARK   13  A    between atoms: _24  and  _25
REMARK   14  A    between atoms: _27  and  _29
REMARK   15  A    between atoms: _29  and  _30
REMARK   16  A    between atoms: _29  and  _32
REMARK   17  A    between atoms: _32  and  _33
REMARK   18  A    between atoms: _33  and  _34
REMARK   19  A    between atoms: _39  and  _41
REMARK   20  A    between atoms: _41  and  _42
REMARK   21  A    between atoms: _44  and  _46
REMARK   22  A    between atoms: _46  and  _47
REMARK   23  A    between atoms: _46  and  _49
REMARK   24  A    between atoms: _49  and  _50
REMARK   25  A    between atoms: _55  and  _56
REMARK   26  A    between atoms: _58  and  _60
REMARK   27  A    between atoms: _60  and  _61
REMARK   28  A    between atoms: _60  and  _63
REMARK   29  A    between atoms: _63  and  _64
REMARK   30  A    between atoms: _67  and  _69
REMARK   31  A    between atoms: _69  and  _70
REMARK   32  A    between atoms: _69  and  _72
REMARK   33  A    between atoms: _75  and  _77
REMARK   34  A    between atoms: _77  and  _78
REMARK   35  A    between atoms: _77  and  _80
REMARK   36  A    between atoms: _80  and  _81
REMARK   37  A    between atoms: _84  and  _86
REMARK   38  A    between atoms: _86  and  _87
REMARK   39  A    between atoms: _86  and  _89
REMARK   40  A    between atoms: _89  and  _90
REMARK   41  A    between atoms: _93  and  _95
REMARK   42  A    between atoms: _95  and  _96
REMARK   43  A    between atoms: _98  and  _100
REMARK   44  A    between atoms: _100  and  _101
REMARK   45  A    between atoms: _100  and  _103
REMARK   46  A    between atoms: _103  and  _104
REMARK   47  A    between atoms: _106  and  _108
REMARK   48  A    between atoms: _108  and  _109
REMARK   49  A    between atoms: _108  and  _111
REMARK   50  A    between atoms: _111  and  _112
REMARK   51  A    between atoms: _114  and  _116
REMARK   52  A    between atoms: _116  and  _117
REMARK   53  A    between atoms: _116  and  _119
REMARK   54  A    between atoms: _119  and  _120
REMARK   55  A    between atoms: _125  and  _127
REMARK   56  A    between atoms: _127  and  _128
REMARK   57  A    between atoms: _127  and  _130
REMARK   58  A    between atoms: _130  and  _131
REMARK   59  A    between atoms: _136  and  _137
REMARK   60  A    between atoms: _139  and  _141
REMARK   61  A    between atoms: _141  and  _142
REMARK   62  A    between atoms: _141  and  _144
REMARK   63  A    between atoms: _148  and  _149
REMARK   64  A    between atoms: _154  and  _156
REMARK   65  A    between atoms: _156  and  _157
REMARK   66  A    between atoms: _156  and  _159
REMARK   67  A    between atoms: _159  and  _160
REMARK   68  A    between atoms: _165  and  _166
REMARK   69  A    between atoms: _168  and  _170
REMARK   70  A    between atoms: _170  and  _171
REMARK   71  A    between atoms: _170  and  _173
REMARK   72  A    between atoms: _173  and  _174
REMARK   73  A    between atoms: _177  and  _179
REMARK   74  A    between atoms: _179  and  _180
REMARK   75  A    between atoms: _179  and  _182
REMARK   76  A    between atoms: _182  and  _183
REMARK   77  A    between atoms: _183  and  _184
REMARK   78  A    between atoms: _189  and  _191
REMARK   79  A    between atoms: _191  and  _192
REMARK   80  A    between atoms: _194  and  _196
REMARK   81  A    between atoms: _196  and  _197
REMARK   82  A    between atoms: _196  and  _199
REMARK   83  A    between atoms: _199  and  _200
REMARK   84  A    between atoms: _200  and  _201
REMARK   85  A    between atoms: _201  and  _202
REMARK   86  A    between atoms: _202  and  _203
REMARK   87  A    between atoms: _207  and  _209
REMARK   88  A    between atoms: _209  and  _210
REMARK   89  A    between atoms: _209  and  _212
REMARK   90  A    between atoms: _212  and  _213
REMARK   91  A    between atoms: _223  and  _225
REMARK   92  A    between atoms: _225  and  _226
REMARK   93  A    between atoms: _225  and  _228
REMARK   94  A    between atoms: _228  and  _229
REMARK   95  A    between atoms: _232  and  _234
REMARK   96  A    between atoms: _234  and  _235
REMARK   97  A    between atoms: _234  and  _237
REMARK   98  A    between atoms: _237  and  _238
REMARK   99  A    between atoms: _238  and  _239
REMARK  100  A    between atoms: _239  and  _240
REMARK  101  A    between atoms: _240  and  _241
REMARK  102  A    between atoms: _245  and  _247
REMARK  103  A    between atoms: _247  and  _248
REMARK  104  A    between atoms: _247  and  _250
REMARK  105  A    between atoms: _250  and  _251
REMARK  106  A    between atoms: _257  and  _259
REMARK  107  A    between atoms: _259  and  _260
REMARK  108  A    between atoms: _259  and  _262
REMARK  109  A    between atoms: _262  and  _263
REMARK  110  A    between atoms: _269  and  _271
REMARK  111  A    between atoms: _271  and  _272
REMARK  112  A    between atoms: _271  and  _274
REMARK  113  A    between atoms: _274  and  _275
REMARK  114  A    between atoms: _278  and  _280
REMARK  115  A    between atoms: _280  and  _281
REMARK  116  A    between atoms: _280  and  _283
REMARK  117  A    between atoms: _283  and  _284
REMARK  118  A    between atoms: _286  and  _288
REMARK  119  A    between atoms: _288  and  _289
REMARK  120  A    between atoms: _288  and  _291
REMARK  121  A    between atoms: _291  and  _292
REMARK  122  A    between atoms: _302  and  _304
REMARK  123  A    between atoms: _304  and  _305
REMARK  124  A    between atoms: _307  and  _309
REMARK  125  A    between atoms: _309  and  _310
REMARK  126  A    between atoms: _309  and  _312
REMARK  127  A    between atoms: _312  and  _313
REMARK  128  A    between atoms: _316  and  _318
REMARK  129  A    between atoms: _318  and  _319
REMARK  130  A    between atoms: _318  and  _321
REMARK  131  A    between atoms: _321  and  _322
REMARK  132  A    between atoms: _325  and  _327
REMARK  133  A    between atoms: _327  and  _328
REMARK  134  A    between atoms: _330  and  _332
REMARK  135  A    between atoms: _332  and  _333
REMARK  136  A    between atoms: _332  and  _335
REMARK  137  A    between atoms: _335  and  _336
REMARK  138  A    between atoms: _339  and  _341
REMARK  139  A    between atoms: _341  and  _342
REMARK  140  A    between atoms: _345  and  _347
REMARK  141  A    between atoms: _347  and  _348
REMARK  142  A    between atoms: _347  and  _350
REMARK  143  A    between atoms: _350  and  _351
REMARK  144  A    between atoms: _356  and  _357
REMARK  145  A    between atoms: _359  and  _361
REMARK  146  A    between atoms: _361  and  _362
REMARK  147  A    between atoms: _361  and  _364
REMARK  148  A    between atoms: _364  and  _365
REMARK  149  A    between atoms: _365  and  _366
REMARK  150  A    between atoms: _369  and  _371
REMARK  151  A    between atoms: _371  and  _372
REMARK  152  A    between atoms: _371  and  _374
REMARK  153  A    between atoms: _374  and  _375
REMARK  154  A    between atoms: _378  and  _380
REMARK  155  A    between atoms: _380  and  _381
REMARK  156  A    between atoms: _384  and  _386
REMARK  157  A    between atoms: _386  and  _387
REMARK  158  A    between atoms: _386  and  _389
REMARK  159  A    between atoms: _389  and  _390
REMARK  160  A    between atoms: _390  and  _391
REMARK  161  A    between atoms: _391  and  _392
REMARK  162  A    between atoms: _401  and  _403
REMARK  163  A    between atoms: _403  and  _404
REMARK  164  A    between atoms: _403  and  _406
REMARK  165  A    between atoms: _406  and  _407
REMARK  166  A    between atoms: _417  and  _419
REMARK  167  A    between atoms: _419  and  _420
REMARK  168  A    between atoms: _419  and  _422
REMARK  169  A    between atoms: _422  and  _423
REMARK  170  A    between atoms: _428  and  _429
REMARK  171  A    between atoms: _431  and  _433
REMARK  172  A    between atoms: _433  and  _434
REMARK  173  A    between atoms: _433  and  _436
REMARK  174  A    between atoms: _436  and  _437
REMARK  175  A    between atoms: _442  and  _443
REMARK  176  A    between atoms: _445  and  _447
REMARK  177  A    between atoms: _447  and  _448
REMARK  178  A    between atoms: _447  and  _450
REMARK  179  A    between atoms: _450  and  _451
REMARK  180  A    between atoms: _451  and  _452
REMARK  181  A    between atoms: _452  and  _453
REMARK  182  A    between atoms: _453  and  _454
REMARK  183  A    between atoms: _458  and  _460
REMARK  184  A    between atoms: _460  and  _461
REMARK  185  A    between atoms: _460  and  _463
REMARK  186  A    between atoms: _463  and  _464
REMARK  187  A    between atoms: _467  and  _469
REMARK  188  A    between atoms: _469  and  _470
REMARK  189  A    between atoms: _469  and  _472
REMARK  190  A    between atoms: _475  and  _477
REMARK  191  A    between atoms: _477  and  _478
REMARK  192  A    between atoms: _477  and  _480
REMARK  193  A    between atoms: _480  and  _481
REMARK  194  A    between atoms: _484  and  _486
REMARK  195  A    between atoms: _486  and  _487
REMARK  196  A    between atoms: _486  and  _489
REMARK  197  A    between atoms: _489  and  _490
REMARK  198  A    between atoms: _492  and  _494
REMARK  199  A    between atoms: _494  and  _495
REMARK  200  A    between atoms: _497  and  _499
REMARK  201  A    between atoms: _499  and  _500
REMARK  202  A    between atoms: _499  and  _502
REMARK  203  A    between atoms: _502  and  _503
REMARK  204  A    between atoms: _506  and  _508
REMARK  205  A    between atoms: _508  and  _509
REMARK  206  A    between atoms: _508  and  _511
REMARK  207  A    between atoms: _511  and  _512
REMARK  208  A    between atoms: _515  and  _517
REMARK  209  A    between atoms: _517  and  _518
REMARK  210  A    between atoms: _517  and  _520
REMARK  211  A    between atoms: _520  and  _521
REMARK  212  A    between atoms: _526  and  _528
REMARK  213  A    between atoms: _528  and  _529
REMARK  214  A    between atoms: _528  and  _531
REMARK  215  A    between atoms: _531  and  _532
REMARK  216  A    between atoms: _532  and  _533
REMARK  217  A    between atoms: _533  and  _534
REMARK  218  A    between atoms: _543  and  _545
REMARK  219  A    between atoms: _545  and  _546
REMARK  220  A    between atoms: _545  and  _548
REMARK  221  A    between atoms: _548  and  _549
REMARK  222  A    between atoms: _549  and  _550
REMARK  223  A    between atoms: _550  and  _551
REMARK  224  A    between atoms: _560  and  _562
REMARK  225  A    between atoms: _562  and  _563
REMARK  226  A    between atoms: _562  and  _565
REMARK  227  A    between atoms: _565  and  _566
REMARK  228  A    between atoms: _568  and  _570
REMARK  229  A    between atoms: _570  and  _571
REMARK  230  A    between atoms: _570  and  _573
REMARK  231  A    between atoms: _573  and  _574
REMARK  232  A    between atoms: _574  and  _575
REMARK  233  A    between atoms: _580  and  _582
REMARK  234  A    between atoms: _582  and  _583
REMARK  235  A    between atoms: _582  and  _585
REMARK  236  A    between atoms: _585  and  _586
REMARK  237  A    between atoms: _589  and  _591
REMARK  238  A    between atoms: _591  and  _592
REMARK  239  A    between atoms: _591  and  _594
REMARK  240  A    between atoms: _594  and  _595
REMARK  241  A    between atoms: _598  and  _600
REMARK  242  A    between atoms: _600  and  _601
REMARK  243  A    between atoms: _600  and  _603
REMARK  244  A    between atoms: _606  and  _608
REMARK  245  A    between atoms: _608  and  _609
REMARK  246  A    between atoms: _611  and  _613
REMARK  247  A    between atoms: _613  and  _614
REMARK  248  A    between atoms: _617  and  _619
REMARK  249  A    between atoms: _619  and  _620
REMARK  250  A    between atoms: _619  and  _622
REMARK                            x       y       z     vdW  Elec       q    Type
REMARK                         _______ _______ _______ _____ _____    ______ ____
ROOT
ATOM      1  O   HOH     1      18.142   6.136  19.611  0.00  0.00    +0.000 OA
ENDROOT
TORSDOF 0
REMARK  Name = ../refined-set-2016/3lpi/3lpi_pocket.pdb
REMARK  250 active torsions:
REMARK  status: ('A' for Active; 'I' for Inactive)
REMARK    1  A    between atoms: _1  and  _3
REMARK    2  A    between atoms: _3  and  _4
REMARK    3  A    between atoms: _3  and  _6
REMARK    4  A    between atoms: _6  and  _7
REMARK    5  A    between atoms: _7  and  _8
REMARK    6  A    between atoms: _8  and  _9
REMARK    7  A    between atoms: _9  and  _10
REMARK    8  A    between atoms: _14  and  _16
REMARK    9  A    between atoms: _16  and  _17
REMARK   10  A    between atoms: _16  and  _19
REMARK   11  A    between atoms: _19  and  _20
REMARK   12  A    between atoms: _22  and  _24
REMARK   13  A    between atoms: _24  and  _25
REMARK   14  A    between atoms: _27  and  _29
REMARK   15  A    between atoms: _29  and  _30
REMARK   16  A    between atoms: _29  and  _32
REMARK   17  A    between atoms: _32  and  _33
REMARK   18  A    between atoms: _33  and  _34
REMARK   19  A    between atoms: _39  and  _41
REMARK   20  A    between atoms: _41  and  _42
REMARK   21  A    between atoms: _44  and  _46
REMARK   22  A    between atoms: _46  and  _47
REMARK   23  A    between atoms: _46  and  _49
REMARK   24  A    between atoms: _49  and  _50
REMARK   25  A    between atoms: _55  and  _56
REMARK   26  A    between atoms: _58  and  _60
REMARK   27  A    between atoms: _60  and  _61
REMARK   28  A    between atoms: _60  and  _63
REMARK   29  A    between atoms: _63  and  _64
REMARK   30  A    between atoms: _67  and  _69
REMARK   31  A    between atoms: _69  and  _70
REMARK   32  A    between atoms: _69  and  _72
REMARK   33  A    between atoms: _75  and  _77
REMARK   34  A    between atoms: _77  and  _78
REMARK   35  A    between atoms: _77  and  _80
REMARK   36  A    between atoms: _80  and  _81
REMARK   37  A    between atoms: _84  and  _86
REMARK   38  A    between atoms: _86  and  _87
REMARK   39  A    between atoms: _86  and  _89
REMARK   40  A    between atoms: _89  and  _90
REMARK   41  A    between atoms: _93  and  _95
REMARK   42  A    between atoms: _95  and  _96
REMARK   43  A    between atoms: _98  and  _100
REMARK   44  A    between atoms: _100  and  _101
REMARK   45  A    between atoms: _100  and  _103
REMARK   46  A    between atoms: _103  and  _104
REMARK   47  A    between atoms: _106  and  _108
REMARK   48  A    between atoms: _108  and  _109
REMARK   49  A    between atoms: _108  and  _111
REMARK   50  A    between atoms: _111  and  _112
REMARK   51  A    between atoms: _114  and  _116
REMARK   52  A    between atoms: _116  and  _117
REMARK   53  A    between atoms: _116  and  _119
REMARK   54  A    between atoms: _119  and  _120
REMARK   55  A    between atoms: _125  and  _127
REMARK   56  A    between atoms: _127  and  _128
REMARK   57  A    between atoms: _127  and  _130
REMARK   58  A    between atoms: _130  and  _131
REMARK   59  A    between atoms: _136  and  _137
REMARK   60  A    between atoms: _139  and  _141
REMARK   61  A    between atoms: _141  and  _142
REMARK   62  A    between atoms: _141  and  _144
REMARK   63  A    between atoms: _148  and  _149
REMARK   64  A    between atoms: _154  and  _156
REMARK   65  A    between atoms: _156  and  _157
REMARK   66  A    between atoms: _156  and  _159
REMARK   67  A    between atoms: _159  and  _160
REMARK   68  A    between atoms: _165  and  _166
REMARK   69  A    between atoms: _168  and  _170
REMARK   70  A    between atoms: _170  and  _171
REMARK   71  A    between atoms: _170  and  _173
REMARK   72  A    between atoms: _173  and  _174
REMARK   73  A    between atoms: _177  and  _179
REMARK   74  A    between atoms: _179  and  _180
REMARK   75  A    between atoms: _179  and  _182
REMARK   76  A    between atoms: _182  and  _183
REMARK   77  A    between atoms: _183  and  _184
REMARK   78  A    between atoms: _189  and  _191
REMARK   79  A    between atoms: _191  and  _192
REMARK   80  A    between atoms: _194  and  _196
REMARK   81  A    between atoms: _196  and  _197
REMARK   82  A    between atoms: _196  and  _199
REMARK   83  A    between atoms: _199  and  _200
REMARK   84  A    between atoms: _200  and  _201
REMARK   85  A    between atoms: _201  and  _202
REMARK   86  A    between atoms: _202  and  _203
REMARK   87  A    between atoms: _207  and  _209
REMARK   88  A    between atoms: _209  and  _210
REMARK   89  A    between atoms: _209  and  _212
REMARK   90  A    between atoms: _212  and  _213
REMARK   91  A    between atoms: _223  and  _225
REMARK   92  A    between atoms: _225  and  _226
REMARK   93  A    between atoms: _225  and  _228
REMARK   94  A    between atoms: _228  and  _229
REMARK   95  A    between atoms: _232  and  _234
REMARK   96  A    between atoms: _234  and  _235
REMARK   97  A    between atoms: _234  and  _237
REMARK   98  A    between atoms: _237  and  _238
REMARK   99  A    between atoms: _238  and  _239
REMARK  100  A    between atoms: _239  and  _240
REMARK  101  A    between atoms: _240  and  _241
REMARK  102  A    between atoms: _245  and  _247
REMARK  103  A    between atoms: _247  and  _248
REMARK  104  A    between atoms: _247  and  _250
REMARK  105  A    between atoms: _250  and  _251
REMARK  106  A    between atoms: _257  and  _259
REMARK  107  A    between atoms: _259  and  _260
REMARK  108  A    between atoms: _259  and  _262
REMARK  109  A    between atoms: _262  and  _263
REMARK  110  A    between atoms: _269  and  _271
REMARK  111  A    between atoms: _271  and  _272
REMARK  112  A    between atoms: _271  and  _274
REMARK  113  A    between atoms: _274  and  _275
REMARK  114  A    between atoms: _278  and  _280
REMARK  115  A    between atoms: _280  and  _281
REMARK  116  A    between atoms: _280  and  _283
REMARK  117  A    between atoms: _283  and  _284
REMARK  118  A    between atoms: _286  and  _288
REMARK  119  A    between atoms: _288  and  _289
REMARK  120  A    between atoms: _288  and  _291
REMARK  121  A    between atoms: _291  and  _292
REMARK  122  A    between atoms: _302  and  _304
REMARK  123  A    between atoms: _304  and  _305
REMARK  124  A    between atoms: _307  and  _309
REMARK  125  A    between atoms: _309  and  _310
REMARK  126  A    between atoms: _309  and  _312
REMARK  127  A    between atoms: _312  and  _313
REMARK  128  A    between atoms: _316  and  _318
REMARK  129  A    between atoms: _318  and  _319
REMARK  130  A    between atoms: _318  and  _321
REMARK  131  A    between atoms: _321  and  _322
REMARK  132  A    between atoms: _325  and  _327
REMARK  133  A    between atoms: _327  and  _328
REMARK  134  A    between atoms: _330  and  _332
REMARK  135  A    between atoms: _332  and  _333
REMARK  136  A    between atoms: _332  and  _335
REMARK  137  A    between atoms: _335  and  _336
REMARK  138  A    between atoms: _339  and  _341
REMARK  139  A    between atoms: _341  and  _342
REMARK  140  A    between atoms: _345  and  _347
REMARK  141  A    between atoms: _347  and  _348
REMARK  142  A    between atoms: _347  and  _350
REMARK  143  A    between atoms: _350  and  _351
REMARK  144  A    between atoms: _356  and  _357
REMARK  145  A    between atoms: _359  and  _361
REMARK  146  A    between atoms: _361  and  _362
REMARK  147  A    between atoms: _361  and  _364
REMARK  148  A    between atoms: _364  and  _365
REMARK  149  A    between atoms: _365  and  _366
REMARK  150  A    between atoms: _369  and  _371
REMARK  151  A    between atoms: _371  and  _372
REMARK  152  A    between atoms: _371  and  _374
REMARK  153  A    between atoms: _374  and  _375
REMARK  154  A    between atoms: _378  and  _380
REMARK  155  A    between atoms: _380  and  _381
REMARK  156  A    between atoms: _384  and  _386
REMARK  157  A    between atoms: _386  and  _387
REMARK  158  A    between atoms: _386  and  _389
REMARK  159  A    between atoms: _389  and  _390
REMARK  160  A    between atoms: _390  and  _391
REMARK  161  A    between atoms: _391  and  _392
REMARK  162  A    between atoms: _401  and  _403
REMARK  163  A    between atoms: _403  and  _404
REMARK  164  A    between atoms: _403  and  _406
REMARK  165  A    between atoms: _406  and  _407
REMARK  166  A    between atoms: _417  and  _419
REMARK  167  A    between atoms: _419  and  _420
REMARK  168  A    between atoms: _419  and  _422
REMARK  169  A    between atoms: _422  and  _423
REMARK  170  A    between atoms: _428  and  _429
REMARK  171  A    between atoms: _431  and  _433
REMARK  172  A    between atoms: _433  and  _434
REMARK  173  A    between atoms: _433  and  _436
REMARK  174  A    between atoms: _436  and  _437
REMARK  175  A    between atoms: _442  and  _443
REMARK  176  A    between atoms: _445  and  _447
REMARK  177  A    between atoms: _447  and  _448
REMARK  178  A    between atoms: _447  and  _450
REMARK  179  A    between atoms: _450  and  _451
REMARK  180  A    between atoms: _451  and  _452
REMARK  181  A    between atoms: _452  and  _453
REMARK  182  A    between atoms: _453  and  _454
REMARK  183  A    between atoms: _458  and  _460
REMARK  184  A    between atoms: _460  and  _461
REMARK  185  A    between atoms: _460  and  _463
REMARK  186  A    between atoms: _463  and  _464
REMARK  187  A    between atoms: _467  and  _469
REMARK  188  A    between atoms: _469  and  _470
REMARK  189  A    between atoms: _469  and  _472
REMARK  190  A    between atoms: _475  and  _477
REMARK  191  A    between atoms: _477  and  _478
REMARK  192  A    between atoms: _477  and  _480
REMARK  193  A    between atoms: _480  and  _481
REMARK  194  A    between atoms: _484  and  _486
REMARK  195  A    between atoms: _486  and  _487
REMARK  196  A    between atoms: _486  and  _489
REMARK  197  A    between atoms: _489  and  _490
REMARK  198  A    between atoms: _492  and  _494
REMARK  199  A    between atoms: _494  and  _495
REMARK  200  A    between atoms: _497  and  _499
REMARK  201  A    between atoms: _499  and  _500
REMARK  202  A    between atoms: _499  and  _502
REMARK  203  A    between atoms: _502  and  _503
REMARK  204  A    between atoms: _506  and  _508
REMARK  205  A    between atoms: _508  and  _509
REMARK  206  A    between atoms: _508  and  _511
REMARK  207  A    between atoms: _511  and  _512
REMARK  208  A    between atoms: _515  and  _517
REMARK  209  A    between atoms: _517  and  _518
REMARK  210  A    between atoms: _517  and  _520
REMARK  211  A    between atoms: _520  and  _521
REMARK  212  A    between atoms: _526  and  _528
REMARK  213  A    between atoms: _528  and  _529
REMARK  214  A    between atoms: _528  and  _531
REMARK  215  A    between atoms: _531  and  _532
REMARK  216  A    between atoms: _532  and  _533
REMARK  217  A    between atoms: _533  and  _534
REMARK  218  A    between atoms: _543  and  _545
REMARK  219  A    between atoms: _545  and  _546
REMARK  220  A    between atoms: _545  and  _548
REMARK  221  A    between atoms: _548  and  _549
REMARK  222  A    between atoms: _549  and  _550
REMARK  223  A    between atoms: _550  and  _551
REMARK  224  A    between atoms: _560  and  _562
REMARK  225  A    between atoms: _562  and  _563
REMARK  226  A    between atoms: _562  and  _565
REMARK  227  A    between atoms: _565  and  _566
REMARK  228  A    between atoms: _568  and  _570
REMARK  229  A    between atoms: _570  and  _571
REMARK  230  A    between atoms: _570  and  _573
REMARK  231  A    between atoms: _573  and  _574
REMARK  232  A    between atoms: _574  and  _575
REMARK  233  A    between atoms: _580  and  _582
REMARK  234  A    between atoms: _582  and  _583
REMARK  235  A    between atoms: _582  and  _585
REMARK  236  A    between atoms: _585  and  _586
REMARK  237  A    between atoms: _589  and  _591
REMARK  238  A    between atoms: _591  and  _592
REMARK  239  A    between atoms: _591  and  _594
REMARK  240  A    between atoms: _594  and  _595
REMARK  241  A    between atoms: _598  and  _600
REMARK  242  A    between atoms: _600  and  _601
REMARK  243  A    between atoms: _600  and  _603
REMARK  244  A    between atoms: _606  and  _608
REMARK  245  A    between atoms: _608  and  _609
REMARK  246  A    between atoms: _611  and  _613
REMARK  247  A    between atoms: _613  and  _614
REMARK  248  A    between atoms: _617  and  _619
REMARK  249  A    between atoms: _619  and  _620
REMARK  250  A    between atoms: _619  and  _622
REMARK                            x       y       z     vdW  Elec       q    Type
REMARK                         _______ _______ _______ _____ _____    ______ ____
ROOT
ATOM      1  O   HOH     1      28.474   9.464  12.685  0.00  0.00    +0.000 OA
ENDROOT
TORSDOF 0
REMARK  Name = ../refined-set-2016/3lpi/3lpi_pocket.pdb
REMARK  250 active torsions:
REMARK  status: ('A' for Active; 'I' for Inactive)
REMARK    1  A    between atoms: _1  and  _3
REMARK    2  A    between atoms: _3  and  _4
REMARK    3  A    between atoms: _3  and  _6
REMARK    4  A    between atoms: _6  and  _7
REMARK    5  A    between atoms: _7  and  _8
REMARK    6  A    between atoms: _8  and  _9
REMARK    7  A    between atoms: _9  and  _10
REMARK    8  A    between atoms: _14  and  _16
REMARK    9  A    between atoms: _16  and  _17
REMARK   10  A    between atoms: _16  and  _19
REMARK   11  A    between atoms: _19  and  _20
REMARK   12  A    between atoms: _22  and  _24
REMARK   13  A    between atoms: _24  and  _25
REMARK   14  A    between atoms: _27  and  _29
REMARK   15  A    between atoms: _29  and  _30
REMARK   16  A    between atoms: _29  and  _32
REMARK   17  A    between atoms: _32  and  _33
REMARK   18  A    between atoms: _33  and  _34
REMARK   19  A    between atoms: _39  and  _41
REMARK   20  A    between atoms: _41  and  _42
REMARK   21  A    between atoms: _44  and  _46
REMARK   22  A    between atoms: _46  and  _47
REMARK   23  A    between atoms: _46  and  _49
REMARK   24  A    between atoms: _49  and  _50
REMARK   25  A    between atoms: _55  and  _56
REMARK   26  A    between atoms: _58  and  _60
REMARK   27  A    between atoms: _60  and  _61
REMARK   28  A    between atoms: _60  and  _63
REMARK   29  A    between atoms: _63  and  _64
REMARK   30  A    between atoms: _67  and  _69
REMARK   31  A    between atoms: _69  and  _70
REMARK   32  A    between atoms: _69  and  _72
REMARK   33  A    between atoms: _75  and  _77
REMARK   34  A    between atoms: _77  and  _78
REMARK   35  A    between atoms: _77  and  _80
REMARK   36  A    between atoms: _80  and  _81
REMARK   37  A    between atoms: _84  and  _86
REMARK   38  A    between atoms: _86  and  _87
REMARK   39  A    between atoms: _86  and  _89
REMARK   40  A    between atoms: _89  and  _90
REMARK   41  A    between atoms: _93  and  _95
REMARK   42  A    between atoms: _95  and  _96
REMARK   43  A    between atoms: _98  and  _100
REMARK   44  A    between atoms: _100  and  _101
REMARK   45  A    between atoms: _100  and  _103
REMARK   46  A    between atoms: _103  and  _104
REMARK   47  A    between atoms: _106  and  _108
REMARK   48  A    between atoms: _108  and  _109
REMARK   49  A    between atoms: _108  and  _111
REMARK   50  A    between atoms: _111  and  _112
REMARK   51  A    between atoms: _114  and  _116
REMARK   52  A    between atoms: _116  and  _117
REMARK   53  A    between atoms: _116  and  _119
REMARK   54  A    between atoms: _119  and  _120
REMARK   55  A    between atoms: _125  and  _127
REMARK   56  A    between atoms: _127  and  _128
REMARK   57  A    between atoms: _127  and  _130
REMARK   58  A    between atoms: _130  and  _131
REMARK   59  A    between atoms: _136  and  _137
REMARK   60  A    between atoms: _139  and  _141
REMARK   61  A    between atoms: _141  and  _142
REMARK   62  A    between atoms: _141  and  _144
REMARK   63  A    between atoms: _148  and  _149
REMARK   64  A    between atoms: _154  and  _156
REMARK   65  A    between atoms: _156  and  _157
REMARK   66  A    between atoms: _156  and  _159
REMARK   67  A    between atoms: _159  and  _160
REMARK   68  A    between atoms: _165  and  _166
REMARK   69  A    between atoms: _168  and  _170
REMARK   70  A    between atoms: _170  and  _171
REMARK   71  A    between atoms: _170  and  _173
REMARK   72  A    between atoms: _173  and  _174
REMARK   73  A    between atoms: _177  and  _179
REMARK   74  A    between atoms: _179  and  _180
REMARK   75  A    between atoms: _179  and  _182
REMARK   76  A    between atoms: _182  and  _183
REMARK   77  A    between atoms: _183  and  _184
REMARK   78  A    between atoms: _189  and  _191
REMARK   79  A    between atoms: _191  and  _192
REMARK   80  A    between atoms: _194  and  _196
REMARK   81  A    between atoms: _196  and  _197
REMARK   82  A    between atoms: _196  and  _199
REMARK   83  A    between atoms: _199  and  _200
REMARK   84  A    between atoms: _200  and  _201
REMARK   85  A    between atoms: _201  and  _202
REMARK   86  A    between atoms: _202  and  _203
REMARK   87  A    between atoms: _207  and  _209
REMARK   88  A    between atoms: _209  and  _210
REMARK   89  A    between atoms: _209  and  _212
REMARK   90  A    between atoms: _212  and  _213
REMARK   91  A    between atoms: _223  and  _225
REMARK   92  A    between atoms: _225  and  _226
REMARK   93  A    between atoms: _225  and  _228
REMARK   94  A    between atoms: _228  and  _229
REMARK   95  A    between atoms: _232  and  _234
REMARK   96  A    between atoms: _234  and  _235
REMARK   97  A    between atoms: _234  and  _237
REMARK   98  A    between atoms: _237  and  _238
REMARK   99  A    between atoms: _238  and  _239
REMARK  100  A    between atoms: _239  and  _240
REMARK  101  A    between atoms: _240  and  _241
REMARK  102  A    between atoms: _245  and  _247
REMARK  103  A    between atoms: _247  and  _248
REMARK  104  A    between atoms: _247  and  _250
REMARK  105  A    between atoms: _250  and  _251
REMARK  106  A    between atoms: _257  and  _259
REMARK  107  A    between atoms: _259  and  _260
REMARK  108  A    between atoms: _259  and  _262
REMARK  109  A    between atoms: _262  and  _263
REMARK  110  A    between atoms: _269  and  _271
REMARK  111  A    between atoms: _271  and  _272
REMARK  112  A    between atoms: _271  and  _274
REMARK  113  A    between atoms: _274  and  _275
REMARK  114  A    between atoms: _278  and  _280
REMARK  115  A    between atoms: _280  and  _281
REMARK  116  A    between atoms: _280  and  _283
REMARK  117  A    between atoms: _283  and  _284
REMARK  118  A    between atoms: _286  and  _288
REMARK  119  A    between atoms: _288  and  _289
REMARK  120  A    between atoms: _288  and  _291
REMARK  121  A    between atoms: _291  and  _292
REMARK  122  A    between atoms: _302  and  _304
REMARK  123  A    between atoms: _304  and  _305
REMARK  124  A    between atoms: _307  and  _309
REMARK  125  A    between atoms: _309  and  _310
REMARK  126  A    between atoms: _309  and  _312
REMARK  127  A    between atoms: _312  and  _313
REMARK  128  A    between atoms: _316  and  _318
REMARK  129  A    between atoms: _318  and  _319
REMARK  130  A    between atoms: _318  and  _321
REMARK  131  A    between atoms: _321  and  _322
REMARK  132  A    between atoms: _325  and  _327
REMARK  133  A    between atoms: _327  and  _328
REMARK  134  A    between atoms: _330  and  _332
REMARK  135  A    between atoms: _332  and  _333
REMARK  136  A    between atoms: _332  and  _335
REMARK  137  A    between atoms: _335  and  _336
REMARK  138  A    between atoms: _339  and  _341
REMARK  139  A    between atoms: _341  and  _342
REMARK  140  A    between atoms: _345  and  _347
REMARK  141  A    between atoms: _347  and  _348
REMARK  142  A    between atoms: _347  and  _350
REMARK  143  A    between atoms: _350  and  _351
REMARK  144  A    between atoms: _356  and  _357
REMARK  145  A    between atoms: _359  and  _361
REMARK  146  A    between atoms: _361  and  _362
REMARK  147  A    between atoms: _361  and  _364
REMARK  148  A    between atoms: _364  and  _365
REMARK  149  A    between atoms: _365  and  _366
REMARK  150  A    between atoms: _369  and  _371
REMARK  151  A    between atoms: _371  and  _372
REMARK  152  A    between atoms: _371  and  _374
REMARK  153  A    between atoms: _374  and  _375
REMARK  154  A    between atoms: _378  and  _380
REMARK  155  A    between atoms: _380  and  _381
REMARK  156  A    between atoms: _384  and  _386
REMARK  157  A    between atoms: _386  and  _387
REMARK  158  A    between atoms: _386  and  _389
REMARK  159  A    between atoms: _389  and  _390
REMARK  160  A    between atoms: _390  and  _391
REMARK  161  A    between atoms: _391  and  _392
REMARK  162  A    between atoms: _401  and  _403
REMARK  163  A    between atoms: _403  and  _404
REMARK  164  A    between atoms: _403  and  _406
REMARK  165  A    between atoms: _406  and  _407
REMARK  166  A    between atoms: _417  and  _419
REMARK  167  A    between atoms: _419  and  _420
REMARK  168  A    between atoms: _419  and  _422
REMARK  169  A    between atoms: _422  and  _423
REMARK  170  A    between atoms: _428  and  _429
REMARK  171  A    between atoms: _431  and  _433
REMARK  172  A    between atoms: _433  and  _434
REMARK  173  A    between atoms: _433  and  _436
REMARK  174  A    between atoms: _436  and  _437
REMARK  175  A    between atoms: _442  and  _443
REMARK  176  A    between atoms: _445  and  _447
REMARK  177  A    between atoms: _447  and  _448
REMARK  178  A    between atoms: _447  and  _450
REMARK  179  A    between atoms: _450  and  _451
REMARK  180  A    between atoms: _451  and  _452
REMARK  181  A    between atoms: _452  and  _453
REMARK  182  A    between atoms: _453  and  _454
REMARK  183  A    between atoms: _458  and  _460
REMARK  184  A    between atoms: _460  and  _461
REMARK  185  A    between atoms: _460  and  _463
REMARK  186  A    between atoms: _463  and  _464
REMARK  187  A    between atoms: _467  and  _469
REMARK  188  A    between atoms: _469  and  _470
REMARK  189  A    between atoms: _469  and  _472
REMARK  190  A    between atoms: _475  and  _477
REMARK  191  A    between atoms: _477  and  _478
REMARK  192  A    between atoms: _477  and  _480
REMARK  193  A    between atoms: _480  and  _481
REMARK  194  A    between atoms: _484  and  _486
REMARK  195  A    between atoms: _486  and  _487
REMARK  196  A    between atoms: _486  and  _489
REMARK  197  A    between atoms: _489  and  _490
REMARK  198  A    between atoms: _492  and  _494
REMARK  199  A    between atoms: _494  and  _495
REMARK  200  A    between atoms: _497  and  _499
REMARK  201  A    between atoms: _499  and  _500
REMARK  202  A    between atoms: _499  and  _502
REMARK  203  A    between atoms: _502  and  _503
REMARK  204  A    between atoms: _506  and  _508
REMARK  205  A    between atoms: _508  and  _509
REMARK  206  A    between atoms: _508  and  _511
REMARK  207  A    between atoms: _511  and  _512
REMARK  208  A    between atoms: _515  and  _517
REMARK  209  A    between atoms: _517  and  _518
REMARK  210  A    between atoms: _517  and  _520
REMARK  211  A    between atoms: _520  and  _521
REMARK  212  A    between atoms: _526  and  _528
REMARK  213  A    between atoms: _528  and  _529
REMARK  214  A    between atoms: _528  and  _531
REMARK  215  A    between atoms: _531  and  _532
REMARK  216  A    between atoms: _532  and  _533
REMARK  217  A    between atoms: _533  and  _534
REMARK  218  A    between atoms: _543  and  _545
REMARK  219  A    between atoms: _545  and  _546
REMARK  220  A    between atoms: _545  and  _548
REMARK  221  A    between atoms: _548  and  _549
REMARK  222  A    between atoms: _549  and  _550
REMARK  223  A    between atoms: _550  and  _551
REMARK  224  A    between atoms: _560  and  _562
REMARK  225  A    between atoms: _562  and  _563
REMARK  226  A    between atoms: _562  and  _565
REMARK  227  A    between atoms: _565  and  _566
REMARK  228  A    between atoms: _568  and  _570
REMARK  229  A    between atoms: _570  and  _571
REMARK  230  A    between atoms: _570  and  _573
REMARK  231  A    between atoms: _573  and  _574
REMARK  232  A    between atoms: _574  and  _575
REMARK  233  A    between atoms: _580  and  _582
REMARK  234  A    between atoms: _582  and  _583
REMARK  235  A    between atoms: _582  and  _585
REMARK  236  A    between atoms: _585  and  _586
REMARK  237  A    between atoms: _589  and  _591
REMARK  238  A    between atoms: _591  and  _592
REMARK  239  A    between atoms: _591  and  _594
REMARK  240  A    between atoms: _594  and  _595
REMARK  241  A    between atoms: _598  and  _600
REMARK  242  A    between atoms: _600  and  _601
REMARK  243  A    between atoms: _600  and  _603
REMARK  244  A    between atoms: _606  and  _608
REMARK  245  A    between atoms: _608  and  _609
REMARK  246  A    between atoms: _611  and  _613
REMARK  247  A    between atoms: _613  and  _614
REMARK  248  A    between atoms: _617  and  _619
REMARK  249  A    between atoms: _619  and  _620
REMARK  250  A    between atoms: _619  and  _622
REMARK                            x       y       z     vdW  Elec       q    Type
REMARK                         _______ _______ _______ _____ _____    ______ ____
ROOT
ATOM      1  O   HOH     1      14.693   6.466  22.282  0.00  0.00    +0.000 OA
ENDROOT
TORSDOF 0
REMARK  Name = ../refined-set-2016/3lpi/3lpi_pocket.pdb
REMARK  250 active torsions:
REMARK  status: ('A' for Active; 'I' for Inactive)
REMARK    1  A    between atoms: _1  and  _3
REMARK    2  A    between atoms: _3  and  _4
REMARK    3  A    between atoms: _3  and  _6
REMARK    4  A    between atoms: _6  and  _7
REMARK    5  A    between atoms: _7  and  _8
REMARK    6  A    between atoms: _8  and  _9
REMARK    7  A    between atoms: _9  and  _10
REMARK    8  A    between atoms: _14  and  _16
REMARK    9  A    between atoms: _16  and  _17
REMARK   10  A    between atoms: _16  and  _19
REMARK   11  A    between atoms: _19  and  _20
REMARK   12  A    between atoms: _22  and  _24
REMARK   13  A    between atoms: _24  and  _25
REMARK   14  A    between atoms: _27  and  _29
REMARK   15  A    between atoms: _29  and  _30
REMARK   16  A    between atoms: _29  and  _32
REMARK   17  A    between atoms: _32  and  _33
REMARK   18  A    between atoms: _33  and  _34
REMARK   19  A    between atoms: _39  and  _41
REMARK   20  A    between atoms: _41  and  _42
REMARK   21  A    between atoms: _44  and  _46
REMARK   22  A    between atoms: _46  and  _47
REMARK   23  A    between atoms: _46  and  _49
REMARK   24  A    between atoms: _49  and  _50
REMARK   25  A    between atoms: _55  and  _56
REMARK   26  A    between atoms: _58  and  _60
REMARK   27  A    between atoms: _60  and  _61
REMARK   28  A    between atoms: _60  and  _63
REMARK   29  A    between atoms: _63  and  _64
REMARK   30  A    between atoms: _67  and  _69
REMARK   31  A    between atoms: _69  and  _70
REMARK   32  A    between atoms: _69  and  _72
REMARK   33  A    between atoms: _75  and  _77
REMARK   34  A    between atoms: _77  and  _78
REMARK   35  A    between atoms: _77  and  _80
REMARK   36  A    between atoms: _80  and  _81
REMARK   37  A    between atoms: _84  and  _86
REMARK   38  A    between atoms: _86  and  _87
REMARK   39  A    between atoms: _86  and  _89
REMARK   40  A    between atoms: _89  and  _90
REMARK   41  A    between atoms: _93  and  _95
REMARK   42  A    between atoms: _95  and  _96
REMARK   43  A    between atoms: _98  and  _100
REMARK   44  A    between atoms: _100  and  _101
REMARK   45  A    between atoms: _100  and  _103
REMARK   46  A    between atoms: _103  and  _104
REMARK   47  A    between atoms: _106  and  _108
REMARK   48  A    between atoms: _108  and  _109
REMARK   49  A    between atoms: _108  and  _111
REMARK   50  A    between atoms: _111  and  _112
REMARK   51  A    between atoms: _114  and  _116
REMARK   52  A    between atoms: _116  and  _117
REMARK   53  A    between atoms: _116  and  _119
REMARK   54  A    between atoms: _119  and  _120
REMARK   55  A    between atoms: _125  and  _127
REMARK   56  A    between atoms: _127  and  _128
REMARK   57  A    between atoms: _127  and  _130
REMARK   58  A    between atoms: _130  and  _131
REMARK   59  A    between atoms: _136  and  _137
REMARK   60  A    between atoms: _139  and  _141
REMARK   61  A    between atoms: _141  and  _142
REMARK   62  A    between atoms: _141  and  _144
REMARK   63  A    between atoms: _148  and  _149
REMARK   64  A    between atoms: _154  and  _156
REMARK   65  A    between atoms: _156  and  _157
REMARK   66  A    between atoms: _156  and  _159
REMARK   67  A    between atoms: _159  and  _160
REMARK   68  A    between atoms: _165  and  _166
REMARK   69  A    between atoms: _168  and  _170
REMARK   70  A    between atoms: _170  and  _171
REMARK   71  A    between atoms: _170  and  _173
REMARK   72  A    between atoms: _173  and  _174
REMARK   73  A    between atoms: _177  and  _179
REMARK   74  A    between atoms: _179  and  _180
REMARK   75  A    between atoms: _179  and  _182
REMARK   76  A    between atoms: _182  and  _183
REMARK   77  A    between atoms: _183  and  _184
REMARK   78  A    between atoms: _189  and  _191
REMARK   79  A    between atoms: _191  and  _192
REMARK   80  A    between atoms: _194  and  _196
REMARK   81  A    between atoms: _196  and  _197
REMARK   82  A    between atoms: _196  and  _199
REMARK   83  A    between atoms: _199  and  _200
REMARK   84  A    between atoms: _200  and  _201
REMARK   85  A    between atoms: _201  and  _202
REMARK   86  A    between atoms: _202  and  _203
REMARK   87  A    between atoms: _207  and  _209
REMARK   88  A    between atoms: _209  and  _210
REMARK   89  A    between atoms: _209  and  _212
REMARK   90  A    between atoms: _212  and  _213
REMARK   91  A    between atoms: _223  and  _225
REMARK   92  A    between atoms: _225  and  _226
REMARK   93  A    between atoms: _225  and  _228
REMARK   94  A    between atoms: _228  and  _229
REMARK   95  A    between atoms: _232  and  _234
REMARK   96  A    between atoms: _234  and  _235
REMARK   97  A    between atoms: _234  and  _237
REMARK   98  A    between atoms: _237  and  _238
REMARK   99  A    between atoms: _238  and  _239
REMARK  100  A    between atoms: _239  and  _240
REMARK  101  A    between atoms: _240  and  _241
REMARK  102  A    between atoms: _245  and  _247
REMARK  103  A    between atoms: _247  and  _248
REMARK  104  A    between atoms: _247  and  _250
REMARK  105  A    between atoms: _250  and  _251
REMARK  106  A    between atoms: _257  and  _259
REMARK  107  A    between atoms: _259  and  _260
REMARK  108  A    between atoms: _259  and  _262
REMARK  109  A    between atoms: _262  and  _263
REMARK  110  A    between atoms: _269  and  _271
REMARK  111  A    between atoms: _271  and  _272
REMARK  112  A    between atoms: _271  and  _274
REMARK  113  A    between atoms: _274  and  _275
REMARK  114  A    between atoms: _278  and  _280
REMARK  115  A    between atoms: _280  and  _281
REMARK  116  A    between atoms: _280  and  _283
REMARK  117  A    between atoms: _283  and  _284
REMARK  118  A    between atoms: _286  and  _288
REMARK  119  A    between atoms: _288  and  _289
REMARK  120  A    between atoms: _288  and  _291
REMARK  121  A    between atoms: _291  and  _292
REMARK  122  A    between atoms: _302  and  _304
REMARK  123  A    between atoms: _304  and  _305
REMARK  124  A    between atoms: _307  and  _309
REMARK  125  A    between atoms: _309  and  _310
REMARK  126  A    between atoms: _309  and  _312
REMARK  127  A    between atoms: _312  and  _313
REMARK  128  A    between atoms: _316  and  _318
REMARK  129  A    between atoms: _318  and  _319
REMARK  130  A    between atoms: _318  and  _321
REMARK  131  A    between atoms: _321  and  _322
REMARK  132  A    between atoms: _325  and  _327
REMARK  133  A    between atoms: _327  and  _328
REMARK  134  A    between atoms: _330  and  _332
REMARK  135  A    between atoms: _332  and  _333
REMARK  136  A    between atoms: _332  and  _335
REMARK  137  A    between atoms: _335  and  _336
REMARK  138  A    between atoms: _339  and  _341
REMARK  139  A    between atoms: _341  and  _342
REMARK  140  A    between atoms: _345  and  _347
REMARK  141  A    between atoms: _347  and  _348
REMARK  142  A    between atoms: _347  and  _350
REMARK  143  A    between atoms: _350  and  _351
REMARK  144  A    between atoms: _356  and  _357
REMARK  145  A    between atoms: _359  and  _361
REMARK  146  A    between atoms: _361  and  _362
REMARK  147  A    between atoms: _361  and  _364
REMARK  148  A    between atoms: _364  and  _365
REMARK  149  A    between atoms: _365  and  _366
REMARK  150  A    between atoms: _369  and  _371
REMARK  151  A    between atoms: _371  and  _372
REMARK  152  A    between atoms: _371  and  _374
REMARK  153  A    between atoms: _374  and  _375
REMARK  154  A    between atoms: _378  and  _380
REMARK  155  A    between atoms: _380  and  _381
REMARK  156  A    between atoms: _384  and  _386
REMARK  157  A    between atoms: _386  and  _387
REMARK  158  A    between atoms: _386  and  _389
REMARK  159  A    between atoms: _389  and  _390
REMARK  160  A    between atoms: _390  and  _391
REMARK  161  A    between atoms: _391  and  _392
REMARK  162  A    between atoms: _401  and  _403
REMARK  163  A    between atoms: _403  and  _404
REMARK  164  A    between atoms: _403  and  _406
REMARK  165  A    between atoms: _406  and  _407
REMARK  166  A    between atoms: _417  and  _419
REMARK  167  A    between atoms: _419  and  _420
REMARK  168  A    between atoms: _419  and  _422
REMARK  169  A    between atoms: _422  and  _423
REMARK  170  A    between atoms: _428  and  _429
REMARK  171  A    between atoms: _431  and  _433
REMARK  172  A    between atoms: _433  and  _434
REMARK  173  A    between atoms: _433  and  _436
REMARK  174  A    between atoms: _436  and  _437
REMARK  175  A    between atoms: _442  and  _443
REMARK  176  A    between atoms: _445  and  _447
REMARK  177  A    between atoms: _447  and  _448
REMARK  178  A    between atoms: _447  and  _450
REMARK  179  A    between atoms: _450  and  _451
REMARK  180  A    between atoms: _451  and  _452
REMARK  181  A    between atoms: _452  and  _453
REMARK  182  A    between atoms: _453  and  _454
REMARK  183  A    between atoms: _458  and  _460
REMARK  184  A    between atoms: _460  and  _461
REMARK  185  A    between atoms: _460  and  _463
REMARK  186  A    between atoms: _463  and  _464
REMARK  187  A    between atoms: _467  and  _469
REMARK  188  A    between atoms: _469  and  _470
REMARK  189  A    between atoms: _469  and  _472
REMARK  190  A    between atoms: _475  and  _477
REMARK  191  A    between atoms: _477  and  _478
REMARK  192  A    between atoms: _477  and  _480
REMARK  193  A    between atoms: _480  and  _481
REMARK  194  A    between atoms: _484  and  _486
REMARK  195  A    between atoms: _486  and  _487
REMARK  196  A    between atoms: _486  and  _489
REMARK  197  A    between atoms: _489  and  _490
REMARK  198  A    between atoms: _492  and  _494
REMARK  199  A    between atoms: _494  and  _495
REMARK  200  A    between atoms: _497  and  _499
REMARK  201  A    between atoms: _499  and  _500
REMARK  202  A    between atoms: _499  and  _502
REMARK  203  A    between atoms: _502  and  _503
REMARK  204  A    between atoms: _506  and  _508
REMARK  205  A    between atoms: _508  and  _509
REMARK  206  A    between atoms: _508  and  _511
REMARK  207  A    between atoms: _511  and  _512
REMARK  208  A    between atoms: _515  and  _517
REMARK  209  A    between atoms: _517  and  _518
REMARK  210  A    between atoms: _517  and  _520
REMARK  211  A    between atoms: _520  and  _521
REMARK  212  A    between atoms: _526  and  _528
REMARK  213  A    between atoms: _528  and  _529
REMARK  214  A    between atoms: _528  and  _531
REMARK  215  A    between atoms: _531  and  _532
REMARK  216  A    between atoms: _532  and  _533
REMARK  217  A    between atoms: _533  and  _534
REMARK  218  A    between atoms: _543  and  _545
REMARK  219  A    between atoms: _545  and  _546
REMARK  220  A    between atoms: _545  and  _548
REMARK  221  A    between atoms: _548  and  _549
REMARK  222  A    between atoms: _549  and  _550
REMARK  223  A    between atoms: _550  and  _551
REMARK  224  A    between atoms: _560  and  _562
REMARK  225  A    between atoms: _562  and  _563
REMARK  226  A    between atoms: _562  and  _565
REMARK  227  A    between atoms: _565  and  _566
REMARK  228  A    between atoms: _568  and  _570
REMARK  229  A    between atoms: _570  and  _571
REMARK  230  A    between atoms: _570  and  _573
REMARK  231  A    between atoms: _573  and  _574
REMARK  232  A    between atoms: _574  and  _575
REMARK  233  A    between atoms: _580  and  _582
REMARK  234  A    between atoms: _582  and  _583
REMARK  235  A    between atoms: _582  and  _585
REMARK  236  A    between atoms: _585  and  _586
REMARK  237  A    between atoms: _589  and  _591
REMARK  238  A    between atoms: _591  and  _592
REMARK  239  A    between atoms: _591  and  _594
REMARK  240  A    between atoms: _594  and  _595
REMARK  241  A    between atoms: _598  and  _600
REMARK  242  A    between atoms: _600  and  _601
REMARK  243  A    between atoms: _600  and  _603
REMARK  244  A    between atoms: _606  and  _608
REMARK  245  A    between atoms: _608  and  _609
REMARK  246  A    between atoms: _611  and  _613
REMARK  247  A    between atoms: _613  and  _614
REMARK  248  A    between atoms: _617  and  _619
REMARK  249  A    between atoms: _619  and  _620
REMARK  250  A    between atoms: _619  and  _622
REMARK                            x       y       z     vdW  Elec       q    Type
REMARK                         _______ _______ _______ _____ _____    ______ ____
ROOT
ATOM      1  O   HOH     1      29.407   4.750  22.693  0.00  0.00    +0.000 OA
ENDROOT
TORSDOF 0
REMARK  Name = ../refined-set-2016/3lpi/3lpi_pocket.pdb
REMARK  250 active torsions:
REMARK  status: ('A' for Active; 'I' for Inactive)
REMARK    1  A    between atoms: _1  and  _3
REMARK    2  A    between atoms: _3  and  _4
REMARK    3  A    between atoms: _3  and  _6
REMARK    4  A    between atoms: _6  and  _7
REMARK    5  A    between atoms: _7  and  _8
REMARK    6  A    between atoms: _8  and  _9
REMARK    7  A    between atoms: _9  and  _10
REMARK    8  A    between atoms: _14  and  _16
REMARK    9  A    between atoms: _16  and  _17
REMARK   10  A    between atoms: _16  and  _19
REMARK   11  A    between atoms: _19  and  _20
REMARK   12  A    between atoms: _22  and  _24
REMARK   13  A    between atoms: _24  and  _25
REMARK   14  A    between atoms: _27  and  _29
REMARK   15  A    between atoms: _29  and  _30
REMARK   16  A    between atoms: _29  and  _32
REMARK   17  A    between atoms: _32  and  _33
REMARK   18  A    between atoms: _33  and  _34
REMARK   19  A    between atoms: _39  and  _41
REMARK   20  A    between atoms: _41  and  _42
REMARK   21  A    between atoms: _44  and  _46
REMARK   22  A    between atoms: _46  and  _47
REMARK   23  A    between atoms: _46  and  _49
REMARK   24  A    between atoms: _49  and  _50
REMARK   25  A    between atoms: _55  and  _56
REMARK   26  A    between atoms: _58  and  _60
REMARK   27  A    between atoms: _60  and  _61
REMARK   28  A    between atoms: _60  and  _63
REMARK   29  A    between atoms: _63  and  _64
REMARK   30  A    between atoms: _67  and  _69
REMARK   31  A    between atoms: _69  and  _70
REMARK   32  A    between atoms: _69  and  _72
REMARK   33  A    between atoms: _75  and  _77
REMARK   34  A    between atoms: _77  and  _78
REMARK   35  A    between atoms: _77  and  _80
REMARK   36  A    between atoms: _80  and  _81
REMARK   37  A    between atoms: _84  and  _86
REMARK   38  A    between atoms: _86  and  _87
REMARK   39  A    between atoms: _86  and  _89
REMARK   40  A    between atoms: _89  and  _90
REMARK   41  A    between atoms: _93  and  _95
REMARK   42  A    between atoms: _95  and  _96
REMARK   43  A    between atoms: _98  and  _100
REMARK   44  A    between atoms: _100  and  _101
REMARK   45  A    between atoms: _100  and  _103
REMARK   46  A    between atoms: _103  and  _104
REMARK   47  A    between atoms: _106  and  _108
REMARK   48  A    between atoms: _108  and  _109
REMARK   49  A    between atoms: _108  and  _111
REMARK   50  A    between atoms: _111  and  _112
REMARK   51  A    between atoms: _114  and  _116
REMARK   52  A    between atoms: _116  and  _117
REMARK   53  A    between atoms: _116  and  _119
REMARK   54  A    between atoms: _119  and  _120
REMARK   55  A    between atoms: _125  and  _127
REMARK   56  A    between atoms: _127  and  _128
REMARK   57  A    between atoms: _127  and  _130
REMARK   58  A    between atoms: _130  and  _131
REMARK   59  A    between atoms: _136  and  _137
REMARK   60  A    between atoms: _139  and  _141
REMARK   61  A    between atoms: _141  and  _142
REMARK   62  A    between atoms: _141  and  _144
REMARK   63  A    between atoms: _148  and  _149
REMARK   64  A    between atoms: _154  and  _156
REMARK   65  A    between atoms: _156  and  _157
REMARK   66  A    between atoms: _156  and  _159
REMARK   67  A    between atoms: _159  and  _160
REMARK   68  A    between atoms: _165  and  _166
REMARK   69  A    between atoms: _168  and  _170
REMARK   70  A    between atoms: _170  and  _171
REMARK   71  A    between atoms: _170  and  _173
REMARK   72  A    between atoms: _173  and  _174
REMARK   73  A    between atoms: _177  and  _179
REMARK   74  A    between atoms: _179  and  _180
REMARK   75  A    between atoms: _179  and  _182
REMARK   76  A    between atoms: _182  and  _183
REMARK   77  A    between atoms: _183  and  _184
REMARK   78  A    between atoms: _189  and  _191
REMARK   79  A    between atoms: _191  and  _192
REMARK   80  A    between atoms: _194  and  _196
REMARK   81  A    between atoms: _196  and  _197
REMARK   82  A    between atoms: _196  and  _199
REMARK   83  A    between atoms: _199  and  _200
REMARK   84  A    between atoms: _200  and  _201
REMARK   85  A    between atoms: _201  and  _202
REMARK   86  A    between atoms: _202  and  _203
REMARK   87  A    between atoms: _207  and  _209
REMARK   88  A    between atoms: _209  and  _210
REMARK   89  A    between atoms: _209  and  _212
REMARK   90  A    between atoms: _212  and  _213
REMARK   91  A    between atoms: _223  and  _225
REMARK   92  A    between atoms: _225  and  _226
REMARK   93  A    between atoms: _225  and  _228
REMARK   94  A    between atoms: _228  and  _229
REMARK   95  A    between atoms: _232  and  _234
REMARK   96  A    between atoms: _234  and  _235
REMARK   97  A    between atoms: _234  and  _237
REMARK   98  A    between atoms: _237  and  _238
REMARK   99  A    between atoms: _238  and  _239
REMARK  100  A    between atoms: _239  and  _240
REMARK  101  A    between atoms: _240  and  _241
REMARK  102  A    between atoms: _245  and  _247
REMARK  103  A    between atoms: _247  and  _248
REMARK  104  A    between atoms: _247  and  _250
REMARK  105  A    between atoms: _250  and  _251
REMARK  106  A    between atoms: _257  and  _259
REMARK  107  A    between atoms: _259  and  _260
REMARK  108  A    between atoms: _259  and  _262
REMARK  109  A    between atoms: _262  and  _263
REMARK  110  A    between atoms: _269  and  _271
REMARK  111  A    between atoms: _271  and  _272
REMARK  112  A    between atoms: _271  and  _274
REMARK  113  A    between atoms: _274  and  _275
REMARK  114  A    between atoms: _278  and  _280
REMARK  115  A    between atoms: _280  and  _281
REMARK  116  A    between atoms: _280  and  _283
REMARK  117  A    between atoms: _283  and  _284
REMARK  118  A    between atoms: _286  and  _288
REMARK  119  A    between atoms: _288  and  _289
REMARK  120  A    between atoms: _288  and  _291
REMARK  121  A    between atoms: _291  and  _292
REMARK  122  A    between atoms: _302  and  _304
REMARK  123  A    between atoms: _304  and  _305
REMARK  124  A    between atoms: _307  and  _309
REMARK  125  A    between atoms: _309  and  _310
REMARK  126  A    between atoms: _309  and  _312
REMARK  127  A    between atoms: _312  and  _313
REMARK  128  A    between atoms: _316  and  _318
REMARK  129  A    between atoms: _318  and  _319
REMARK  130  A    between atoms: _318  and  _321
REMARK  131  A    between atoms: _321  and  _322
REMARK  132  A    between atoms: _325  and  _327
REMARK  133  A    between atoms: _327  and  _328
REMARK  134  A    between atoms: _330  and  _332
REMARK  135  A    between atoms: _332  and  _333
REMARK  136  A    between atoms: _332  and  _335
REMARK  137  A    between atoms: _335  and  _336
REMARK  138  A    between atoms: _339  and  _341
REMARK  139  A    between atoms: _341  and  _342
REMARK  140  A    between atoms: _345  and  _347
REMARK  141  A    between atoms: _347  and  _348
REMARK  142  A    between atoms: _347  and  _350
REMARK  143  A    between atoms: _350  and  _351
REMARK  144  A    between atoms: _356  and  _357
REMARK  145  A    between atoms: _359  and  _361
REMARK  146  A    between atoms: _361  and  _362
REMARK  147  A    between atoms: _361  and  _364
REMARK  148  A    between atoms: _364  and  _365
REMARK  149  A    between atoms: _365  and  _366
REMARK  150  A    between atoms: _369  and  _371
REMARK  151  A    between atoms: _371  and  _372
REMARK  152  A    between atoms: _371  and  _374
REMARK  153  A    between atoms: _374  and  _375
REMARK  154  A    between atoms: _378  and  _380
REMARK  155  A    between atoms: _380  and  _381
REMARK  156  A    between atoms: _384  and  _386
REMARK  157  A    between atoms: _386  and  _387
REMARK  158  A    between atoms: _386  and  _389
REMARK  159  A    between atoms: _389  and  _390
REMARK  160  A    between atoms: _390  and  _391
REMARK  161  A    between atoms: _391  and  _392
REMARK  162  A    between atoms: _401  and  _403
REMARK  163  A    between atoms: _403  and  _404
REMARK  164  A    between atoms: _403  and  _406
REMARK  165  A    between atoms: _406  and  _407
REMARK  166  A    between atoms: _417  and  _419
REMARK  167  A    between atoms: _419  and  _420
REMARK  168  A    between atoms: _419  and  _422
REMARK  169  A    between atoms: _422  and  _423
REMARK  170  A    between atoms: _428  and  _429
REMARK  171  A    between atoms: _431  and  _433
REMARK  172  A    between atoms: _433  and  _434
REMARK  173  A    between atoms: _433  and  _436
REMARK  174  A    between atoms: _436  and  _437
REMARK  175  A    between atoms: _442  and  _443
REMARK  176  A    between atoms: _445  and  _447
REMARK  177  A    between atoms: _447  and  _448
REMARK  178  A    between atoms: _447  and  _450
REMARK  179  A    between atoms: _450  and  _451
REMARK  180  A    between atoms: _451  and  _452
REMARK  181  A    between atoms: _452  and  _453
REMARK  182  A    between atoms: _453  and  _454
REMARK  183  A    between atoms: _458  and  _460
REMARK  184  A    between atoms: _460  and  _461
REMARK  185  A    between atoms: _460  and  _463
REMARK  186  A    between atoms: _463  and  _464
REMARK  187  A    between atoms: _467  and  _469
REMARK  188  A    between atoms: _469  and  _470
REMARK  189  A    between atoms: _469  and  _472
REMARK  190  A    between atoms: _475  and  _477
REMARK  191  A    between atoms: _477  and  _478
REMARK  192  A    between atoms: _477  and  _480
REMARK  193  A    between atoms: _480  and  _481
REMARK  194  A    between atoms: _484  and  _486
REMARK  195  A    between atoms: _486  and  _487
REMARK  196  A    between atoms: _486  and  _489
REMARK  197  A    between atoms: _489  and  _490
REMARK  198  A    between atoms: _492  and  _494
REMARK  199  A    between atoms: _494  and  _495
REMARK  200  A    between atoms: _497  and  _499
REMARK  201  A    between atoms: _499  and  _500
REMARK  202  A    between atoms: _499  and  _502
REMARK  203  A    between atoms: _502  and  _503
REMARK  204  A    between atoms: _506  and  _508
REMARK  205  A    between atoms: _508  and  _509
REMARK  206  A    between atoms: _508  and  _511
REMARK  207  A    between atoms: _511  and  _512
REMARK  208  A    between atoms: _515  and  _517
REMARK  209  A    between atoms: _517  and  _518
REMARK  210  A    between atoms: _517  and  _520
REMARK  211  A    between atoms: _520  and  _521
REMARK  212  A    between atoms: _526  and  _528
REMARK  213  A    between atoms: _528  and  _529
REMARK  214  A    between atoms: _528  and  _531
REMARK  215  A    between atoms: _531  and  _532
REMARK  216  A    between atoms: _532  and  _533
REMARK  217  A    between atoms: _533  and  _534
REMARK  218  A    between atoms: _543  and  _545
REMARK  219  A    between atoms: _545  and  _546
REMARK  220  A    between atoms: _545  and  _548
REMARK  221  A    between atoms: _548  and  _549
REMARK  222  A    between atoms: _549  and  _550
REMARK  223  A    between atoms: _550  and  _551
REMARK  224  A    between atoms: _560  and  _562
REMARK  225  A    between atoms: _562  and  _563
REMARK  226  A    between atoms: _562  and  _565
REMARK  227  A    between atoms: _565  and  _566
REMARK  228  A    between atoms: _568  and  _570
REMARK  229  A    between atoms: _570  and  _571
REMARK  230  A    between atoms: _570  and  _573
REMARK  231  A    between atoms: _573  and  _574
REMARK  232  A    between atoms: _574  and  _575
REMARK  233  A    between atoms: _580  and  _582
REMARK  234  A    between atoms: _582  and  _583
REMARK  235  A    between atoms: _582  and  _585
REMARK  236  A    between atoms: _585  and  _586
REMARK  237  A    between atoms: _589  and  _591
REMARK  238  A    between atoms: _591  and  _592
REMARK  239  A    between atoms: _591  and  _594
REMARK  240  A    between atoms: _594  and  _595
REMARK  241  A    between atoms: _598  and  _600
REMARK  242  A    between atoms: _600  and  _601
REMARK  243  A    between atoms: _600  and  _603
REMARK  244  A    between atoms: _606  and  _608
REMARK  245  A    between atoms: _608  and  _609
REMARK  246  A    between atoms: _611  and  _613
REMARK  247  A    between atoms: _613  and  _614
REMARK  248  A    between atoms: _617  and  _619
REMARK  249  A    between atoms: _619  and  _620
REMARK  250  A    between atoms: _619  and  _622
REMARK                            x       y       z     vdW  Elec       q    Type
REMARK                         _______ _______ _______ _____ _____    ______ ____
ROOT
ATOM      1  O   HOH     1      20.306  12.163  33.377  0.00  0.00    +0.000 OA
ENDROOT
TORSDOF 0
REMARK  Name = ../refined-set-2016/3lpi/3lpi_pocket.pdb
REMARK  250 active torsions:
REMARK  status: ('A' for Active; 'I' for Inactive)
REMARK    1  A    between atoms: _1  and  _3
REMARK    2  A    between atoms: _3  and  _4
REMARK    3  A    between atoms: _3  and  _6
REMARK    4  A    between atoms: _6  and  _7
REMARK    5  A    between atoms: _7  and  _8
REMARK    6  A    between atoms: _8  and  _9
REMARK    7  A    between atoms: _9  and  _10
REMARK    8  A    between atoms: _14  and  _16
REMARK    9  A    between atoms: _16  and  _17
REMARK   10  A    between atoms: _16  and  _19
REMARK   11  A    between atoms: _19  and  _20
REMARK   12  A    between atoms: _22  and  _24
REMARK   13  A    between atoms: _24  and  _25
REMARK   14  A    between atoms: _27  and  _29
REMARK   15  A    between atoms: _29  and  _30
REMARK   16  A    between atoms: _29  and  _32
REMARK   17  A    between atoms: _32  and  _33
REMARK   18  A    between atoms: _33  and  _34
REMARK   19  A    between atoms: _39  and  _41
REMARK   20  A    between atoms: _41  and  _42
REMARK   21  A    between atoms: _44  and  _46
REMARK   22  A    between atoms: _46  and  _47
REMARK   23  A    between atoms: _46  and  _49
REMARK   24  A    between atoms: _49  and  _50
REMARK   25  A    between atoms: _55  and  _56
REMARK   26  A    between atoms: _58  and  _60
REMARK   27  A    between atoms: _60  and  _61
REMARK   28  A    between atoms: _60  and  _63
REMARK   29  A    between atoms: _63  and  _64
REMARK   30  A    between atoms: _67  and  _69
REMARK   31  A    between atoms: _69  and  _70
REMARK   32  A    between atoms: _69  and  _72
REMARK   33  A    between atoms: _75  and  _77
REMARK   34  A    between atoms: _77  and  _78
REMARK   35  A    between atoms: _77  and  _80
REMARK   36  A    between atoms: _80  and  _81
REMARK   37  A    between atoms: _84  and  _86
REMARK   38  A    between atoms: _86  and  _87
REMARK   39  A    between atoms: _86  and  _89
REMARK   40  A    between atoms: _89  and  _90
REMARK   41  A    between atoms: _93  and  _95
REMARK   42  A    between atoms: _95  and  _96
REMARK   43  A    between atoms: _98  and  _100
REMARK   44  A    between atoms: _100  and  _101
REMARK   45  A    between atoms: _100  and  _103
REMARK   46  A    between atoms: _103  and  _104
REMARK   47  A    between atoms: _106  and  _108
REMARK   48  A    between atoms: _108  and  _109
REMARK   49  A    between atoms: _108  and  _111
REMARK   50  A    between atoms: _111  and  _112
REMARK   51  A    between atoms: _114  and  _116
REMARK   52  A    between atoms: _116  and  _117
REMARK   53  A    between atoms: _116  and  _119
REMARK   54  A    between atoms: _119  and  _120
REMARK   55  A    between atoms: _125  and  _127
REMARK   56  A    between atoms: _127  and  _128
REMARK   57  A    between atoms: _127  and  _130
REMARK   58  A    between atoms: _130  and  _131
REMARK   59  A    between atoms: _136  and  _137
REMARK   60  A    between atoms: _139  and  _141
REMARK   61  A    between atoms: _141  and  _142
REMARK   62  A    between atoms: _141  and  _144
REMARK   63  A    between atoms: _148  and  _149
REMARK   64  A    between atoms: _154  and  _156
REMARK   65  A    between atoms: _156  and  _157
REMARK   66  A    between atoms: _156  and  _159
REMARK   67  A    between atoms: _159  and  _160
REMARK   68  A    between atoms: _165  and  _166
REMARK   69  A    between atoms: _168  and  _170
REMARK   70  A    between atoms: _170  and  _171
REMARK   71  A    between atoms: _170  and  _173
REMARK   72  A    between atoms: _173  and  _174
REMARK   73  A    between atoms: _177  and  _179
REMARK   74  A    between atoms: _179  and  _180
REMARK   75  A    between atoms: _179  and  _182
REMARK   76  A    between atoms: _182  and  _183
REMARK   77  A    between atoms: _183  and  _184
REMARK   78  A    between atoms: _189  and  _191
REMARK   79  A    between atoms: _191  and  _192
REMARK   80  A    between atoms: _194  and  _196
REMARK   81  A    between atoms: _196  and  _197
REMARK   82  A    between atoms: _196  and  _199
REMARK   83  A    between atoms: _199  and  _200
REMARK   84  A    between atoms: _200  and  _201
REMARK   85  A    between atoms: _201  and  _202
REMARK   86  A    between atoms: _202  and  _203
REMARK   87  A    between atoms: _207  and  _209
REMARK   88  A    between atoms: _209  and  _210
REMARK   89  A    between atoms: _209  and  _212
REMARK   90  A    between atoms: _212  and  _213
REMARK   91  A    between atoms: _223  and  _225
REMARK   92  A    between atoms: _225  and  _226
REMARK   93  A    between atoms: _225  and  _228
REMARK   94  A    between atoms: _228  and  _229
REMARK   95  A    between atoms: _232  and  _234
REMARK   96  A    between atoms: _234  and  _235
REMARK   97  A    between atoms: _234  and  _237
REMARK   98  A    between atoms: _237  and  _238
REMARK   99  A    between atoms: _238  and  _239
REMARK  100  A    between atoms: _239  and  _240
REMARK  101  A    between atoms: _240  and  _241
REMARK  102  A    between atoms: _245  and  _247
REMARK  103  A    between atoms: _247  and  _248
REMARK  104  A    between atoms: _247  and  _250
REMARK  105  A    between atoms: _250  and  _251
REMARK  106  A    between atoms: _257  and  _259
REMARK  107  A    between atoms: _259  and  _260
REMARK  108  A    between atoms: _259  and  _262
REMARK  109  A    between atoms: _262  and  _263
REMARK  110  A    between atoms: _269  and  _271
REMARK  111  A    between atoms: _271  and  _272
REMARK  112  A    between atoms: _271  and  _274
REMARK  113  A    between atoms: _274  and  _275
REMARK  114  A    between atoms: _278  and  _280
REMARK  115  A    between atoms: _280  and  _281
REMARK  116  A    between atoms: _280  and  _283
REMARK  117  A    between atoms: _283  and  _284
REMARK  118  A    between atoms: _286  and  _288
REMARK  119  A    between atoms: _288  and  _289
REMARK  120  A    between atoms: _288  and  _291
REMARK  121  A    between atoms: _291  and  _292
REMARK  122  A    between atoms: _302  and  _304
REMARK  123  A    between atoms: _304  and  _305
REMARK  124  A    between atoms: _307  and  _309
REMARK  125  A    between atoms: _309  and  _310
REMARK  126  A    between atoms: _309  and  _312
REMARK  127  A    between atoms: _312  and  _313
REMARK  128  A    between atoms: _316  and  _318
REMARK  129  A    between atoms: _318  and  _319
REMARK  130  A    between atoms: _318  and  _321
REMARK  131  A    between atoms: _321  and  _322
REMARK  132  A    between atoms: _325  and  _327
REMARK  133  A    between atoms: _327  and  _328
REMARK  134  A    between atoms: _330  and  _332
REMARK  135  A    between atoms: _332  and  _333
REMARK  136  A    between atoms: _332  and  _335
REMARK  137  A    between atoms: _335  and  _336
REMARK  138  A    between atoms: _339  and  _341
REMARK  139  A    between atoms: _341  and  _342
REMARK  140  A    between atoms: _345  and  _347
REMARK  141  A    between atoms: _347  and  _348
REMARK  142  A    between atoms: _347  and  _350
REMARK  143  A    between atoms: _350  and  _351
REMARK  144  A    between atoms: _356  and  _357
REMARK  145  A    between atoms: _359  and  _361
REMARK  146  A    between atoms: _361  and  _362
REMARK  147  A    between atoms: _361  and  _364
REMARK  148  A    between atoms: _364  and  _365
REMARK  149  A    between atoms: _365  and  _366
REMARK  150  A    between atoms: _369  and  _371
REMARK  151  A    between atoms: _371  and  _372
REMARK  152  A    between atoms: _371  and  _374
REMARK  153  A    between atoms: _374  and  _375
REMARK  154  A    between atoms: _378  and  _380
REMARK  155  A    between atoms: _380  and  _381
REMARK  156  A    between atoms: _384  and  _386
REMARK  157  A    between atoms: _386  and  _387
REMARK  158  A    between atoms: _386  and  _389
REMARK  159  A    between atoms: _389  and  _390
REMARK  160  A    between atoms: _390  and  _391
REMARK  161  A    between atoms: _391  and  _392
REMARK  162  A    between atoms: _401  and  _403
REMARK  163  A    between atoms: _403  and  _404
REMARK  164  A    between atoms: _403  and  _406
REMARK  165  A    between atoms: _406  and  _407
REMARK  166  A    between atoms: _417  and  _419
REMARK  167  A    between atoms: _419  and  _420
REMARK  168  A    between atoms: _419  and  _422
REMARK  169  A    between atoms: _422  and  _423
REMARK  170  A    between atoms: _428  and  _429
REMARK  171  A    between atoms: _431  and  _433
REMARK  172  A    between atoms: _433  and  _434
REMARK  173  A    between atoms: _433  and  _436
REMARK  174  A    between atoms: _436  and  _437
REMARK  175  A    between atoms: _442  and  _443
REMARK  176  A    between atoms: _445  and  _447
REMARK  177  A    between atoms: _447  and  _448
REMARK  178  A    between atoms: _447  and  _450
REMARK  179  A    between atoms: _450  and  _451
REMARK  180  A    between atoms: _451  and  _452
REMARK  181  A    between atoms: _452  and  _453
REMARK  182  A    between atoms: _453  and  _454
REMARK  183  A    between atoms: _458  and  _460
REMARK  184  A    between atoms: _460  and  _461
REMARK  185  A    between atoms: _460  and  _463
REMARK  186  A    between atoms: _463  and  _464
REMARK  187  A    between atoms: _467  and  _469
REMARK  188  A    between atoms: _469  and  _470
REMARK  189  A    between atoms: _469  and  _472
REMARK  190  A    between atoms: _475  and  _477
REMARK  191  A    between atoms: _477  and  _478
REMARK  192  A    between atoms: _477  and  _480
REMARK  193  A    between atoms: _480  and  _481
REMARK  194  A    between atoms: _484  and  _486
REMARK  195  A    between atoms: _486  and  _487
REMARK  196  A    between atoms: _486  and  _489
REMARK  197  A    between atoms: _489  and  _490
REMARK  198  A    between atoms: _492  and  _494
REMARK  199  A    between atoms: _494  and  _495
REMARK  200  A    between atoms: _497  and  _499
REMARK  201  A    between atoms: _499  and  _500
REMARK  202  A    between atoms: _499  and  _502
REMARK  203  A    between atoms: _502  and  _503
REMARK  204  A    between atoms: _506  and  _508
REMARK  205  A    between atoms: _508  and  _509
REMARK  206  A    between atoms: _508  and  _511
REMARK  207  A    between atoms: _511  and  _512
REMARK  208  A    between atoms: _515  and  _517
REMARK  209  A    between atoms: _517  and  _518
REMARK  210  A    between atoms: _517  and  _520
REMARK  211  A    between atoms: _520  and  _521
REMARK  212  A    between atoms: _526  and  _528
REMARK  213  A    between atoms: _528  and  _529
REMARK  214  A    between atoms: _528  and  _531
REMARK  215  A    between atoms: _531  and  _532
REMARK  216  A    between atoms: _532  and  _533
REMARK  217  A    between atoms: _533  and  _534
REMARK  218  A    between atoms: _543  and  _545
REMARK  219  A    between atoms: _545  and  _546
REMARK  220  A    between atoms: _545  and  _548
REMARK  221  A    between atoms: _548  and  _549
REMARK  222  A    between atoms: _549  and  _550
REMARK  223  A    between atoms: _550  and  _551
REMARK  224  A    between atoms: _560  and  _562
REMARK  225  A    between atoms: _562  and  _563
REMARK  226  A    between atoms: _562  and  _565
REMARK  227  A    between atoms: _565  and  _566
REMARK  228  A    between atoms: _568  and  _570
REMARK  229  A    between atoms: _570  and  _571
REMARK  230  A    between atoms: _570  and  _573
REMARK  231  A    between atoms: _573  and  _574
REMARK  232  A    between atoms: _574  and  _575
REMARK  233  A    between atoms: _580  and  _582
REMARK  234  A    between atoms: _582  and  _583
REMARK  235  A    between atoms: _582  and  _585
REMARK  236  A    between atoms: _585  and  _586
REMARK  237  A    between atoms: _589  and  _591
REMARK  238  A    between atoms: _591  and  _592
REMARK  239  A    between atoms: _591  and  _594
REMARK  240  A    between atoms: _594  and  _595
REMARK  241  A    between atoms: _598  and  _600
REMARK  242  A    between atoms: _600  and  _601
REMARK  243  A    between atoms: _600  and  _603
REMARK  244  A    between atoms: _606  and  _608
REMARK  245  A    between atoms: _608  and  _609
REMARK  246  A    between atoms: _611  and  _613
REMARK  247  A    between atoms: _613  and  _614
REMARK  248  A    between atoms: _617  and  _619
REMARK  249  A    between atoms: _619  and  _620
REMARK  250  A    between atoms: _619  and  _622
REMARK                            x       y       z     vdW  Elec       q    Type
REMARK                         _______ _______ _______ _____ _____    ______ ____
ROOT
ATOM      1  O   HOH     1      26.486  14.496  16.834  0.00  0.00    +0.000 OA
ENDROOT
TORSDOF 0
REMARK  Name = ../refined-set-2016/3lpi/3lpi_pocket.pdb
REMARK  250 active torsions:
REMARK  status: ('A' for Active; 'I' for Inactive)
REMARK    1  A    between atoms: _1  and  _3
REMARK    2  A    between atoms: _3  and  _4
REMARK    3  A    between atoms: _3  and  _6
REMARK    4  A    between atoms: _6  and  _7
REMARK    5  A    between atoms: _7  and  _8
REMARK    6  A    between atoms: _8  and  _9
REMARK    7  A    between atoms: _9  and  _10
REMARK    8  A    between atoms: _14  and  _16
REMARK    9  A    between atoms: _16  and  _17
REMARK   10  A    between atoms: _16  and  _19
REMARK   11  A    between atoms: _19  and  _20
REMARK   12  A    between atoms: _22  and  _24
REMARK   13  A    between atoms: _24  and  _25
REMARK   14  A    between atoms: _27  and  _29
REMARK   15  A    between atoms: _29  and  _30
REMARK   16  A    between atoms: _29  and  _32
REMARK   17  A    between atoms: _32  and  _33
REMARK   18  A    between atoms: _33  and  _34
REMARK   19  A    between atoms: _39  and  _41
REMARK   20  A    between atoms: _41  and  _42
REMARK   21  A    between atoms: _44  and  _46
REMARK   22  A    between atoms: _46  and  _47
REMARK   23  A    between atoms: _46  and  _49
REMARK   24  A    between atoms: _49  and  _50
REMARK   25  A    between atoms: _55  and  _56
REMARK   26  A    between atoms: _58  and  _60
REMARK   27  A    between atoms: _60  and  _61
REMARK   28  A    between atoms: _60  and  _63
REMARK   29  A    between atoms: _63  and  _64
REMARK   30  A    between atoms: _67  and  _69
REMARK   31  A    between atoms: _69  and  _70
REMARK   32  A    between atoms: _69  and  _72
REMARK   33  A    between atoms: _75  and  _77
REMARK   34  A    between atoms: _77  and  _78
REMARK   35  A    between atoms: _77  and  _80
REMARK   36  A    between atoms: _80  and  _81
REMARK   37  A    between atoms: _84  and  _86
REMARK   38  A    between atoms: _86  and  _87
REMARK   39  A    between atoms: _86  and  _89
REMARK   40  A    between atoms: _89  and  _90
REMARK   41  A    between atoms: _93  and  _95
REMARK   42  A    between atoms: _95  and  _96
REMARK   43  A    between atoms: _98  and  _100
REMARK   44  A    between atoms: _100  and  _101
REMARK   45  A    between atoms: _100  and  _103
REMARK   46  A    between atoms: _103  and  _104
REMARK   47  A    between atoms: _106  and  _108
REMARK   48  A    between atoms: _108  and  _109
REMARK   49  A    between atoms: _108  and  _111
REMARK   50  A    between atoms: _111  and  _112
REMARK   51  A    between atoms: _114  and  _116
REMARK   52  A    between atoms: _116  and  _117
REMARK   53  A    between atoms: _116  and  _119
REMARK   54  A    between atoms: _119  and  _120
REMARK   55  A    between atoms: _125  and  _127
REMARK   56  A    between atoms: _127  and  _128
REMARK   57  A    between atoms: _127  and  _130
REMARK   58  A    between atoms: _130  and  _131
REMARK   59  A    between atoms: _136  and  _137
REMARK   60  A    between atoms: _139  and  _141
REMARK   61  A    between atoms: _141  and  _142
REMARK   62  A    between atoms: _141  and  _144
REMARK   63  A    between atoms: _148  and  _149
REMARK   64  A    between atoms: _154  and  _156
REMARK   65  A    between atoms: _156  and  _157
REMARK   66  A    between atoms: _156  and  _159
REMARK   67  A    between atoms: _159  and  _160
REMARK   68  A    between atoms: _165  and  _166
REMARK   69  A    between atoms: _168  and  _170
REMARK   70  A    between atoms: _170  and  _171
REMARK   71  A    between atoms: _170  and  _173
REMARK   72  A    between atoms: _173  and  _174
REMARK   73  A    between atoms: _177  and  _179
REMARK   74  A    between atoms: _179  and  _180
REMARK   75  A    between atoms: _179  and  _182
REMARK   76  A    between atoms: _182  and  _183
REMARK   77  A    between atoms: _183  and  _184
REMARK   78  A    between atoms: _189  and  _191
REMARK   79  A    between atoms: _191  and  _192
REMARK   80  A    between atoms: _194  and  _196
REMARK   81  A    between atoms: _196  and  _197
REMARK   82  A    between atoms: _196  and  _199
REMARK   83  A    between atoms: _199  and  _200
REMARK   84  A    between atoms: _200  and  _201
REMARK   85  A    between atoms: _201  and  _202
REMARK   86  A    between atoms: _202  and  _203
REMARK   87  A    between atoms: _207  and  _209
REMARK   88  A    between atoms: _209  and  _210
REMARK   89  A    between atoms: _209  and  _212
REMARK   90  A    between atoms: _212  and  _213
REMARK   91  A    between atoms: _223  and  _225
REMARK   92  A    between atoms: _225  and  _226
REMARK   93  A    between atoms: _225  and  _228
REMARK   94  A    between atoms: _228  and  _229
REMARK   95  A    between atoms: _232  and  _234
REMARK   96  A    between atoms: _234  and  _235
REMARK   97  A    between atoms: _234  and  _237
REMARK   98  A    between atoms: _237  and  _238
REMARK   99  A    between atoms: _238  and  _239
REMARK  100  A    between atoms: _239  and  _240
REMARK  101  A    between atoms: _240  and  _241
REMARK  102  A    between atoms: _245  and  _247
REMARK  103  A    between atoms: _247  and  _248
REMARK  104  A    between atoms: _247  and  _250
REMARK  105  A    between atoms: _250  and  _251
REMARK  106  A    between atoms: _257  and  _259
REMARK  107  A    between atoms: _259  and  _260
REMARK  108  A    between atoms: _259  and  _262
REMARK  109  A    between atoms: _262  and  _263
REMARK  110  A    between atoms: _269  and  _271
REMARK  111  A    between atoms: _271  and  _272
REMARK  112  A    between atoms: _271  and  _274
REMARK  113  A    between atoms: _274  and  _275
REMARK  114  A    between atoms: _278  and  _280
REMARK  115  A    between atoms: _280  and  _281
REMARK  116  A    between atoms: _280  and  _283
REMARK  117  A    between atoms: _283  and  _284
REMARK  118  A    between atoms: _286  and  _288
REMARK  119  A    between atoms: _288  and  _289
REMARK  120  A    between atoms: _288  and  _291
REMARK  121  A    between atoms: _291  and  _292
REMARK  122  A    between atoms: _302  and  _304
REMARK  123  A    between atoms: _304  and  _305
REMARK  124  A    between atoms: _307  and  _309
REMARK  125  A    between atoms: _309  and  _310
REMARK  126  A    between atoms: _309  and  _312
REMARK  127  A    between atoms: _312  and  _313
REMARK  128  A    between atoms: _316  and  _318
REMARK  129  A    between atoms: _318  and  _319
REMARK  130  A    between atoms: _318  and  _321
REMARK  131  A    between atoms: _321  and  _322
REMARK  132  A    between atoms: _325  and  _327
REMARK  133  A    between atoms: _327  and  _328
REMARK  134  A    between atoms: _330  and  _332
REMARK  135  A    between atoms: _332  and  _333
REMARK  136  A    between atoms: _332  and  _335
REMARK  137  A    between atoms: _335  and  _336
REMARK  138  A    between atoms: _339  and  _341
REMARK  139  A    between atoms: _341  and  _342
REMARK  140  A    between atoms: _345  and  _347
REMARK  141  A    between atoms: _347  and  _348
REMARK  142  A    between atoms: _347  and  _350
REMARK  143  A    between atoms: _350  and  _351
REMARK  144  A    between atoms: _356  and  _357
REMARK  145  A    between atoms: _359  and  _361
REMARK  146  A    between atoms: _361  and  _362
REMARK  147  A    between atoms: _361  and  _364
REMARK  148  A    between atoms: _364  and  _365
REMARK  149  A    between atoms: _365  and  _366
REMARK  150  A    between atoms: _369  and  _371
REMARK  151  A    between atoms: _371  and  _372
REMARK  152  A    between atoms: _371  and  _374
REMARK  153  A    between atoms: _374  and  _375
REMARK  154  A    between atoms: _378  and  _380
REMARK  155  A    between atoms: _380  and  _381
REMARK  156  A    between atoms: _384  and  _386
REMARK  157  A    between atoms: _386  and  _387
REMARK  158  A    between atoms: _386  and  _389
REMARK  159  A    between atoms: _389  and  _390
REMARK  160  A    between atoms: _390  and  _391
REMARK  161  A    between atoms: _391  and  _392
REMARK  162  A    between atoms: _401  and  _403
REMARK  163  A    between atoms: _403  and  _404
REMARK  164  A    between atoms: _403  and  _406
REMARK  165  A    between atoms: _406  and  _407
REMARK  166  A    between atoms: _417  and  _419
REMARK  167  A    between atoms: _419  and  _420
REMARK  168  A    between atoms: _419  and  _422
REMARK  169  A    between atoms: _422  and  _423
REMARK  170  A    between atoms: _428  and  _429
REMARK  171  A    between atoms: _431  and  _433
REMARK  172  A    between atoms: _433  and  _434
REMARK  173  A    between atoms: _433  and  _436
REMARK  174  A    between atoms: _436  and  _437
REMARK  175  A    between atoms: _442  and  _443
REMARK  176  A    between atoms: _445  and  _447
REMARK  177  A    between atoms: _447  and  _448
REMARK  178  A    between atoms: _447  and  _450
REMARK  179  A    between atoms: _450  and  _451
REMARK  180  A    between atoms: _451  and  _452
REMARK  181  A    between atoms: _452  and  _453
REMARK  182  A    between atoms: _453  and  _454
REMARK  183  A    between atoms: _458  and  _460
REMARK  184  A    between atoms: _460  and  _461
REMARK  185  A    between atoms: _460  and  _463
REMARK  186  A    between atoms: _463  and  _464
REMARK  187  A    between atoms: _467  and  _469
REMARK  188  A    between atoms: _469  and  _470
REMARK  189  A    between atoms: _469  and  _472
REMARK  190  A    between atoms: _475  and  _477
REMARK  191  A    between atoms: _477  and  _478
REMARK  192  A    between atoms: _477  and  _480
REMARK  193  A    between atoms: _480  and  _481
REMARK  194  A    between atoms: _484  and  _486
REMARK  195  A    between atoms: _486  and  _487
REMARK  196  A    between atoms: _486  and  _489
REMARK  197  A    between atoms: _489  and  _490
REMARK  198  A    between atoms: _492  and  _494
REMARK  199  A    between atoms: _494  and  _495
REMARK  200  A    between atoms: _497  and  _499
REMARK  201  A    between atoms: _499  and  _500
REMARK  202  A    between atoms: _499  and  _502
REMARK  203  A    between atoms: _502  and  _503
REMARK  204  A    between atoms: _506  and  _508
REMARK  205  A    between atoms: _508  and  _509
REMARK  206  A    between atoms: _508  and  _511
REMARK  207  A    between atoms: _511  and  _512
REMARK  208  A    between atoms: _515  and  _517
REMARK  209  A    between atoms: _517  and  _518
REMARK  210  A    between atoms: _517  and  _520
REMARK  211  A    between atoms: _520  and  _521
REMARK  212  A    between atoms: _526  and  _528
REMARK  213  A    between atoms: _528  and  _529
REMARK  214  A    between atoms: _528  and  _531
REMARK  215  A    between atoms: _531  and  _532
REMARK  216  A    between atoms: _532  and  _533
REMARK  217  A    between atoms: _533  and  _534
REMARK  218  A    between atoms: _543  and  _545
REMARK  219  A    between atoms: _545  and  _546
REMARK  220  A    between atoms: _545  and  _548
REMARK  221  A    between atoms: _548  and  _549
REMARK  222  A    between atoms: _549  and  _550
REMARK  223  A    between atoms: _550  and  _551
REMARK  224  A    between atoms: _560  and  _562
REMARK  225  A    between atoms: _562  and  _563
REMARK  226  A    between atoms: _562  and  _565
REMARK  227  A    between atoms: _565  and  _566
REMARK  228  A    between atoms: _568  and  _570
REMARK  229  A    between atoms: _570  and  _571
REMARK  230  A    between atoms: _570  and  _573
REMARK  231  A    between atoms: _573  and  _574
REMARK  232  A    between atoms: _574  and  _575
REMARK  233  A    between atoms: _580  and  _582
REMARK  234  A    between atoms: _582  and  _583
REMARK  235  A    between atoms: _582  and  _585
REMARK  236  A    between atoms: _585  and  _586
REMARK  237  A    between atoms: _589  and  _591
REMARK  238  A    between atoms: _591  and  _592
REMARK  239  A    between atoms: _591  and  _594
REMARK  240  A    between atoms: _594  and  _595
REMARK  241  A    between atoms: _598  and  _600
REMARK  242  A    between atoms: _600  and  _601
REMARK  243  A    between atoms: _600  and  _603
REMARK  244  A    between atoms: _606  and  _608
REMARK  245  A    between atoms: _608  and  _609
REMARK  246  A    between atoms: _611  and  _613
REMARK  247  A    between atoms: _613  and  _614
REMARK  248  A    between atoms: _617  and  _619
REMARK  249  A    between atoms: _619  and  _620
REMARK  250  A    between atoms: _619  and  _622
REMARK                            x       y       z     vdW  Elec       q    Type
REMARK                         _______ _______ _______ _____ _____    ______ ____
ROOT
ATOM      1  O   HOH     1      29.391  14.910  26.673  0.00  0.00    +0.000 OA
ENDROOT
TORSDOF 0
REMARK  Name = ../refined-set-2016/3lpi/3lpi_pocket.pdb
REMARK  250 active torsions:
REMARK  status: ('A' for Active; 'I' for Inactive)
REMARK    1  A    between atoms: _1  and  _3
REMARK    2  A    between atoms: _3  and  _4
REMARK    3  A    between atoms: _3  and  _6
REMARK    4  A    between atoms: _6  and  _7
REMARK    5  A    between atoms: _7  and  _8
REMARK    6  A    between atoms: _8  and  _9
REMARK    7  A    between atoms: _9  and  _10
REMARK    8  A    between atoms: _14  and  _16
REMARK    9  A    between atoms: _16  and  _17
REMARK   10  A    between atoms: _16  and  _19
REMARK   11  A    between atoms: _19  and  _20
REMARK   12  A    between atoms: _22  and  _24
REMARK   13  A    between atoms: _24  and  _25
REMARK   14  A    between atoms: _27  and  _29
REMARK   15  A    between atoms: _29  and  _30
REMARK   16  A    between atoms: _29  and  _32
REMARK   17  A    between atoms: _32  and  _33
REMARK   18  A    between atoms: _33  and  _34
REMARK   19  A    between atoms: _39  and  _41
REMARK   20  A    between atoms: _41  and  _42
REMARK   21  A    between atoms: _44  and  _46
REMARK   22  A    between atoms: _46  and  _47
REMARK   23  A    between atoms: _46  and  _49
REMARK   24  A    between atoms: _49  and  _50
REMARK   25  A    between atoms: _55  and  _56
REMARK   26  A    between atoms: _58  and  _60
REMARK   27  A    between atoms: _60  and  _61
REMARK   28  A    between atoms: _60  and  _63
REMARK   29  A    between atoms: _63  and  _64
REMARK   30  A    between atoms: _67  and  _69
REMARK   31  A    between atoms: _69  and  _70
REMARK   32  A    between atoms: _69  and  _72
REMARK   33  A    between atoms: _75  and  _77
REMARK   34  A    between atoms: _77  and  _78
REMARK   35  A    between atoms: _77  and  _80
REMARK   36  A    between atoms: _80  and  _81
REMARK   37  A    between atoms: _84  and  _86
REMARK   38  A    between atoms: _86  and  _87
REMARK   39  A    between atoms: _86  and  _89
REMARK   40  A    between atoms: _89  and  _90
REMARK   41  A    between atoms: _93  and  _95
REMARK   42  A    between atoms: _95  and  _96
REMARK   43  A    between atoms: _98  and  _100
REMARK   44  A    between atoms: _100  and  _101
REMARK   45  A    between atoms: _100  and  _103
REMARK   46  A    between atoms: _103  and  _104
REMARK   47  A    between atoms: _106  and  _108
REMARK   48  A    between atoms: _108  and  _109
REMARK   49  A    between atoms: _108  and  _111
REMARK   50  A    between atoms: _111  and  _112
REMARK   51  A    between atoms: _114  and  _116
REMARK   52  A    between atoms: _116  and  _117
REMARK   53  A    between atoms: _116  and  _119
REMARK   54  A    between atoms: _119  and  _120
REMARK   55  A    between atoms: _125  and  _127
REMARK   56  A    between atoms: _127  and  _128
REMARK   57  A    between atoms: _127  and  _130
REMARK   58  A    between atoms: _130  and  _131
REMARK   59  A    between atoms: _136  and  _137
REMARK   60  A    between atoms: _139  and  _141
REMARK   61  A    between atoms: _141  and  _142
REMARK   62  A    between atoms: _141  and  _144
REMARK   63  A    between atoms: _148  and  _149
REMARK   64  A    between atoms: _154  and  _156
REMARK   65  A    between atoms: _156  and  _157
REMARK   66  A    between atoms: _156  and  _159
REMARK   67  A    between atoms: _159  and  _160
REMARK   68  A    between atoms: _165  and  _166
REMARK   69  A    between atoms: _168  and  _170
REMARK   70  A    between atoms: _170  and  _171
REMARK   71  A    between atoms: _170  and  _173
REMARK   72  A    between atoms: _173  and  _174
REMARK   73  A    between atoms: _177  and  _179
REMARK   74  A    between atoms: _179  and  _180
REMARK   75  A    between atoms: _179  and  _182
REMARK   76  A    between atoms: _182  and  _183
REMARK   77  A    between atoms: _183  and  _184
REMARK   78  A    between atoms: _189  and  _191
REMARK   79  A    between atoms: _191  and  _192
REMARK   80  A    between atoms: _194  and  _196
REMARK   81  A    between atoms: _196  and  _197
REMARK   82  A    between atoms: _196  and  _199
REMARK   83  A    between atoms: _199  and  _200
REMARK   84  A    between atoms: _200  and  _201
REMARK   85  A    between atoms: _201  and  _202
REMARK   86  A    between atoms: _202  and  _203
REMARK   87  A    between atoms: _207  and  _209
REMARK   88  A    between atoms: _209  and  _210
REMARK   89  A    between atoms: _209  and  _212
REMARK   90  A    between atoms: _212  and  _213
REMARK   91  A    between atoms: _223  and  _225
REMARK   92  A    between atoms: _225  and  _226
REMARK   93  A    between atoms: _225  and  _228
REMARK   94  A    between atoms: _228  and  _229
REMARK   95  A    between atoms: _232  and  _234
REMARK   96  A    between atoms: _234  and  _235
REMARK   97  A    between atoms: _234  and  _237
REMARK   98  A    between atoms: _237  and  _238
REMARK   99  A    between atoms: _238  and  _239
REMARK  100  A    between atoms: _239  and  _240
REMARK  101  A    between atoms: _240  and  _241
REMARK  102  A    between atoms: _245  and  _247
REMARK  103  A    between atoms: _247  and  _248
REMARK  104  A    between atoms: _247  and  _250
REMARK  105  A    between atoms: _250  and  _251
REMARK  106  A    between atoms: _257  and  _259
REMARK  107  A    between atoms: _259  and  _260
REMARK  108  A    between atoms: _259  and  _262
REMARK  109  A    between atoms: _262  and  _263
REMARK  110  A    between atoms: _269  and  _271
REMARK  111  A    between atoms: _271  and  _272
REMARK  112  A    between atoms: _271  and  _274
REMARK  113  A    between atoms: _274  and  _275
REMARK  114  A    between atoms: _278  and  _280
REMARK  115  A    between atoms: _280  and  _281
REMARK  116  A    between atoms: _280  and  _283
REMARK  117  A    between atoms: _283  and  _284
REMARK  118  A    between atoms: _286  and  _288
REMARK  119  A    between atoms: _288  and  _289
REMARK  120  A    between atoms: _288  and  _291
REMARK  121  A    between atoms: _291  and  _292
REMARK  122  A    between atoms: _302  and  _304
REMARK  123  A    between atoms: _304  and  _305
REMARK  124  A    between atoms: _307  and  _309
REMARK  125  A    between atoms: _309  and  _310
REMARK  126  A    between atoms: _309  and  _312
REMARK  127  A    between atoms: _312  and  _313
REMARK  128  A    between atoms: _316  and  _318
REMARK  129  A    between atoms: _318  and  _319
REMARK  130  A    between atoms: _318  and  _321
REMARK  131  A    between atoms: _321  and  _322
REMARK  132  A    between atoms: _325  and  _327
REMARK  133  A    between atoms: _327  and  _328
REMARK  134  A    between atoms: _330  and  _332
REMARK  135  A    between atoms: _332  and  _333
REMARK  136  A    between atoms: _332  and  _335
REMARK  137  A    between atoms: _335  and  _336
REMARK  138  A    between atoms: _339  and  _341
REMARK  139  A    between atoms: _341  and  _342
REMARK  140  A    between atoms: _345  and  _347
REMARK  141  A    between atoms: _347  and  _348
REMARK  142  A    between atoms: _347  and  _350
REMARK  143  A    between atoms: _350  and  _351
REMARK  144  A    between atoms: _356  and  _357
REMARK  145  A    between atoms: _359  and  _361
REMARK  146  A    between atoms: _361  and  _362
REMARK  147  A    between atoms: _361  and  _364
REMARK  148  A    between atoms: _364  and  _365
REMARK  149  A    between atoms: _365  and  _366
REMARK  150  A    between atoms: _369  and  _371
REMARK  151  A    between atoms: _371  and  _372
REMARK  152  A    between atoms: _371  and  _374
REMARK  153  A    between atoms: _374  and  _375
REMARK  154  A    between atoms: _378  and  _380
REMARK  155  A    between atoms: _380  and  _381
REMARK  156  A    between atoms: _384  and  _386
REMARK  157  A    between atoms: _386  and  _387
REMARK  158  A    between atoms: _386  and  _389
REMARK  159  A    between atoms: _389  and  _390
REMARK  160  A    between atoms: _390  and  _391
REMARK  161  A    between atoms: _391  and  _392
REMARK  162  A    between atoms: _401  and  _403
REMARK  163  A    between atoms: _403  and  _404
REMARK  164  A    between atoms: _403  and  _406
REMARK  165  A    between atoms: _406  and  _407
REMARK  166  A    between atoms: _417  and  _419
REMARK  167  A    between atoms: _419  and  _420
REMARK  168  A    between atoms: _419  and  _422
REMARK  169  A    between atoms: _422  and  _423
REMARK  170  A    between atoms: _428  and  _429
REMARK  171  A    between atoms: _431  and  _433
REMARK  172  A    between atoms: _433  and  _434
REMARK  173  A    between atoms: _433  and  _436
REMARK  174  A    between atoms: _436  and  _437
REMARK  175  A    between atoms: _442  and  _443
REMARK  176  A    between atoms: _445  and  _447
REMARK  177  A    between atoms: _447  and  _448
REMARK  178  A    between atoms: _447  and  _450
REMARK  179  A    between atoms: _450  and  _451
REMARK  180  A    between atoms: _451  and  _452
REMARK  181  A    between atoms: _452  and  _453
REMARK  182  A    between atoms: _453  and  _454
REMARK  183  A    between atoms: _458  and  _460
REMARK  184  A    between atoms: _460  and  _461
REMARK  185  A    between atoms: _460  and  _463
REMARK  186  A    between atoms: _463  and  _464
REMARK  187  A    between atoms: _467  and  _469
REMARK  188  A    between atoms: _469  and  _470
REMARK  189  A    between atoms: _469  and  _472
REMARK  190  A    between atoms: _475  and  _477
REMARK  191  A    between atoms: _477  and  _478
REMARK  192  A    between atoms: _477  and  _480
REMARK  193  A    between atoms: _480  and  _481
REMARK  194  A    between atoms: _484  and  _486
REMARK  195  A    between atoms: _486  and  _487
REMARK  196  A    between atoms: _486  and  _489
REMARK  197  A    between atoms: _489  and  _490
REMARK  198  A    between atoms: _492  and  _494
REMARK  199  A    between atoms: _494  and  _495
REMARK  200  A    between atoms: _497  and  _499
REMARK  201  A    between atoms: _499  and  _500
REMARK  202  A    between atoms: _499  and  _502
REMARK  203  A    between atoms: _502  and  _503
REMARK  204  A    between atoms: _506  and  _508
REMARK  205  A    between atoms: _508  and  _509
REMARK  206  A    between atoms: _508  and  _511
REMARK  207  A    between atoms: _511  and  _512
REMARK  208  A    between atoms: _515  and  _517
REMARK  209  A    between atoms: _517  and  _518
REMARK  210  A    between atoms: _517  and  _520
REMARK  211  A    between atoms: _520  and  _521
REMARK  212  A    between atoms: _526  and  _528
REMARK  213  A    between atoms: _528  and  _529
REMARK  214  A    between atoms: _528  and  _531
REMARK  215  A    between atoms: _531  and  _532
REMARK  216  A    between atoms: _532  and  _533
REMARK  217  A    between atoms: _533  and  _534
REMARK  218  A    between atoms: _543  and  _545
REMARK  219  A    between atoms: _545  and  _546
REMARK  220  A    between atoms: _545  and  _548
REMARK  221  A    between atoms: _548  and  _549
REMARK  222  A    between atoms: _549  and  _550
REMARK  223  A    between atoms: _550  and  _551
REMARK  224  A    between atoms: _560  and  _562
REMARK  225  A    between atoms: _562  and  _563
REMARK  226  A    between atoms: _562  and  _565
REMARK  227  A    between atoms: _565  and  _566
REMARK  228  A    between atoms: _568  and  _570
REMARK  229  A    between atoms: _570  and  _571
REMARK  230  A    between atoms: _570  and  _573
REMARK  231  A    between atoms: _573  and  _574
REMARK  232  A    between atoms: _574  and  _575
REMARK  233  A    between atoms: _580  and  _582
REMARK  234  A    between atoms: _582  and  _583
REMARK  235  A    between atoms: _582  and  _585
REMARK  236  A    between atoms: _585  and  _586
REMARK  237  A    between atoms: _589  and  _591
REMARK  238  A    between atoms: _591  and  _592
REMARK  239  A    between atoms: _591  and  _594
REMARK  240  A    between atoms: _594  and  _595
REMARK  241  A    between atoms: _598  and  _600
REMARK  242  A    between atoms: _600  and  _601
REMARK  243  A    between atoms: _600  and  _603
REMARK  244  A    between atoms: _606  and  _608
REMARK  245  A    between atoms: _608  and  _609
REMARK  246  A    between atoms: _611  and  _613
REMARK  247  A    between atoms: _613  and  _614
REMARK  248  A    between atoms: _617  and  _619
REMARK  249  A    between atoms: _619  and  _620
REMARK  250  A    between atoms: _619  and  _622
REMARK                            x       y       z     vdW  Elec       q    Type
REMARK                         _______ _______ _______ _____ _____    ______ ____
ROOT
ATOM      1  O   HOH     1      23.507  14.770  11.119  0.00  0.00    +0.000 OA
ENDROOT
TORSDOF 0
REMARK  Name = ../refined-set-2016/3lpi/3lpi_pocket.pdb
REMARK  250 active torsions:
REMARK  status: ('A' for Active; 'I' for Inactive)
REMARK    1  A    between atoms: _1  and  _3
REMARK    2  A    between atoms: _3  and  _4
REMARK    3  A    between atoms: _3  and  _6
REMARK    4  A    between atoms: _6  and  _7
REMARK    5  A    between atoms: _7  and  _8
REMARK    6  A    between atoms: _8  and  _9
REMARK    7  A    between atoms: _9  and  _10
REMARK    8  A    between atoms: _14  and  _16
REMARK    9  A    between atoms: _16  and  _17
REMARK   10  A    between atoms: _16  and  _19
REMARK   11  A    between atoms: _19  and  _20
REMARK   12  A    between atoms: _22  and  _24
REMARK   13  A    between atoms: _24  and  _25
REMARK   14  A    between atoms: _27  and  _29
REMARK   15  A    between atoms: _29  and  _30
REMARK   16  A    between atoms: _29  and  _32
REMARK   17  A    between atoms: _32  and  _33
REMARK   18  A    between atoms: _33  and  _34
REMARK   19  A    between atoms: _39  and  _41
REMARK   20  A    between atoms: _41  and  _42
REMARK   21  A    between atoms: _44  and  _46
REMARK   22  A    between atoms: _46  and  _47
REMARK   23  A    between atoms: _46  and  _49
REMARK   24  A    between atoms: _49  and  _50
REMARK   25  A    between atoms: _55  and  _56
REMARK   26  A    between atoms: _58  and  _60
REMARK   27  A    between atoms: _60  and  _61
REMARK   28  A    between atoms: _60  and  _63
REMARK   29  A    between atoms: _63  and  _64
REMARK   30  A    between atoms: _67  and  _69
REMARK   31  A    between atoms: _69  and  _70
REMARK   32  A    between atoms: _69  and  _72
REMARK   33  A    between atoms: _75  and  _77
REMARK   34  A    between atoms: _77  and  _78
REMARK   35  A    between atoms: _77  and  _80
REMARK   36  A    between atoms: _80  and  _81
REMARK   37  A    between atoms: _84  and  _86
REMARK   38  A    between atoms: _86  and  _87
REMARK   39  A    between atoms: _86  and  _89
REMARK   40  A    between atoms: _89  and  _90
REMARK   41  A    between atoms: _93  and  _95
REMARK   42  A    between atoms: _95  and  _96
REMARK   43  A    between atoms: _98  and  _100
REMARK   44  A    between atoms: _100  and  _101
REMARK   45  A    between atoms: _100  and  _103
REMARK   46  A    between atoms: _103  and  _104
REMARK   47  A    between atoms: _106  and  _108
REMARK   48  A    between atoms: _108  and  _109
REMARK   49  A    between atoms: _108  and  _111
REMARK   50  A    between atoms: _111  and  _112
REMARK   51  A    between atoms: _114  and  _116
REMARK   52  A    between atoms: _116  and  _117
REMARK   53  A    between atoms: _116  and  _119
REMARK   54  A    between atoms: _119  and  _120
REMARK   55  A    between atoms: _125  and  _127
REMARK   56  A    between atoms: _127  and  _128
REMARK   57  A    between atoms: _127  and  _130
REMARK   58  A    between atoms: _130  and  _131
REMARK   59  A    between atoms: _136  and  _137
REMARK   60  A    between atoms: _139  and  _141
REMARK   61  A    between atoms: _141  and  _142
REMARK   62  A    between atoms: _141  and  _144
REMARK   63  A    between atoms: _148  and  _149
REMARK   64  A    between atoms: _154  and  _156
REMARK   65  A    between atoms: _156  and  _157
REMARK   66  A    between atoms: _156  and  _159
REMARK   67  A    between atoms: _159  and  _160
REMARK   68  A    between atoms: _165  and  _166
REMARK   69  A    between atoms: _168  and  _170
REMARK   70  A    between atoms: _170  and  _171
REMARK   71  A    between atoms: _170  and  _173
REMARK   72  A    between atoms: _173  and  _174
REMARK   73  A    between atoms: _177  and  _179
REMARK   74  A    between atoms: _179  and  _180
REMARK   75  A    between atoms: _179  and  _182
REMARK   76  A    between atoms: _182  and  _183
REMARK   77  A    between atoms: _183  and  _184
REMARK   78  A    between atoms: _189  and  _191
REMARK   79  A    between atoms: _191  and  _192
REMARK   80  A    between atoms: _194  and  _196
REMARK   81  A    between atoms: _196  and  _197
REMARK   82  A    between atoms: _196  and  _199
REMARK   83  A    between atoms: _199  and  _200
REMARK   84  A    between atoms: _200  and  _201
REMARK   85  A    between atoms: _201  and  _202
REMARK   86  A    between atoms: _202  and  _203
REMARK   87  A    between atoms: _207  and  _209
REMARK   88  A    between atoms: _209  and  _210
REMARK   89  A    between atoms: _209  and  _212
REMARK   90  A    between atoms: _212  and  _213
REMARK   91  A    between atoms: _223  and  _225
REMARK   92  A    between atoms: _225  and  _226
REMARK   93  A    between atoms: _225  and  _228
REMARK   94  A    between atoms: _228  and  _229
REMARK   95  A    between atoms: _232  and  _234
REMARK   96  A    between atoms: _234  and  _235
REMARK   97  A    between atoms: _234  and  _237
REMARK   98  A    between atoms: _237  and  _238
REMARK   99  A    between atoms: _238  and  _239
REMARK  100  A    between atoms: _239  and  _240
REMARK  101  A    between atoms: _240  and  _241
REMARK  102  A    between atoms: _245  and  _247
REMARK  103  A    between atoms: _247  and  _248
REMARK  104  A    between atoms: _247  and  _250
REMARK  105  A    between atoms: _250  and  _251
REMARK  106  A    between atoms: _257  and  _259
REMARK  107  A    between atoms: _259  and  _260
REMARK  108  A    between atoms: _259  and  _262
REMARK  109  A    between atoms: _262  and  _263
REMARK  110  A    between atoms: _269  and  _271
REMARK  111  A    between atoms: _271  and  _272
REMARK  112  A    between atoms: _271  and  _274
REMARK  113  A    between atoms: _274  and  _275
REMARK  114  A    between atoms: _278  and  _280
REMARK  115  A    between atoms: _280  and  _281
REMARK  116  A    between atoms: _280  and  _283
REMARK  117  A    between atoms: _283  and  _284
REMARK  118  A    between atoms: _286  and  _288
REMARK  119  A    between atoms: _288  and  _289
REMARK  120  A    between atoms: _288  and  _291
REMARK  121  A    between atoms: _291  and  _292
REMARK  122  A    between atoms: _302  and  _304
REMARK  123  A    between atoms: _304  and  _305
REMARK  124  A    between atoms: _307  and  _309
REMARK  125  A    between atoms: _309  and  _310
REMARK  126  A    between atoms: _309  and  _312
REMARK  127  A    between atoms: _312  and  _313
REMARK  128  A    between atoms: _316  and  _318
REMARK  129  A    between atoms: _318  and  _319
REMARK  130  A    between atoms: _318  and  _321
REMARK  131  A    between atoms: _321  and  _322
REMARK  132  A    between atoms: _325  and  _327
REMARK  133  A    between atoms: _327  and  _328
REMARK  134  A    between atoms: _330  and  _332
REMARK  135  A    between atoms: _332  and  _333
REMARK  136  A    between atoms: _332  and  _335
REMARK  137  A    between atoms: _335  and  _336
REMARK  138  A    between atoms: _339  and  _341
REMARK  139  A    between atoms: _341  and  _342
REMARK  140  A    between atoms: _345  and  _347
REMARK  141  A    between atoms: _347  and  _348
REMARK  142  A    between atoms: _347  and  _350
REMARK  143  A    between atoms: _350  and  _351
REMARK  144  A    between atoms: _356  and  _357
REMARK  145  A    between atoms: _359  and  _361
REMARK  146  A    between atoms: _361  and  _362
REMARK  147  A    between atoms: _361  and  _364
REMARK  148  A    between atoms: _364  and  _365
REMARK  149  A    between atoms: _365  and  _366
REMARK  150  A    between atoms: _369  and  _371
REMARK  151  A    between atoms: _371  and  _372
REMARK  152  A    between atoms: _371  and  _374
REMARK  153  A    between atoms: _374  and  _375
REMARK  154  A    between atoms: _378  and  _380
REMARK  155  A    between atoms: _380  and  _381
REMARK  156  A    between atoms: _384  and  _386
REMARK  157  A    between atoms: _386  and  _387
REMARK  158  A    between atoms: _386  and  _389
REMARK  159  A    between atoms: _389  and  _390
REMARK  160  A    between atoms: _390  and  _391
REMARK  161  A    between atoms: _391  and  _392
REMARK  162  A    between atoms: _401  and  _403
REMARK  163  A    between atoms: _403  and  _404
REMARK  164  A    between atoms: _403  and  _406
REMARK  165  A    between atoms: _406  and  _407
REMARK  166  A    between atoms: _417  and  _419
REMARK  167  A    between atoms: _419  and  _420
REMARK  168  A    between atoms: _419  and  _422
REMARK  169  A    between atoms: _422  and  _423
REMARK  170  A    between atoms: _428  and  _429
REMARK  171  A    between atoms: _431  and  _433
REMARK  172  A    between atoms: _433  and  _434
REMARK  173  A    between atoms: _433  and  _436
REMARK  174  A    between atoms: _436  and  _437
REMARK  175  A    between atoms: _442  and  _443
REMARK  176  A    between atoms: _445  and  _447
REMARK  177  A    between atoms: _447  and  _448
REMARK  178  A    between atoms: _447  and  _450
REMARK  179  A    between atoms: _450  and  _451
REMARK  180  A    between atoms: _451  and  _452
REMARK  181  A    between atoms: _452  and  _453
REMARK  182  A    between atoms: _453  and  _454
REMARK  183  A    between atoms: _458  and  _460
REMARK  184  A    between atoms: _460  and  _461
REMARK  185  A    between atoms: _460  and  _463
REMARK  186  A    between atoms: _463  and  _464
REMARK  187  A    between atoms: _467  and  _469
REMARK  188  A    between atoms: _469  and  _470
REMARK  189  A    between atoms: _469  and  _472
REMARK  190  A    between atoms: _475  and  _477
REMARK  191  A    between atoms: _477  and  _478
REMARK  192  A    between atoms: _477  and  _480
REMARK  193  A    between atoms: _480  and  _481
REMARK  194  A    between atoms: _484  and  _486
REMARK  195  A    between atoms: _486  and  _487
REMARK  196  A    between atoms: _486  and  _489
REMARK  197  A    between atoms: _489  and  _490
REMARK  198  A    between atoms: _492  and  _494
REMARK  199  A    between atoms: _494  and  _495
REMARK  200  A    between atoms: _497  and  _499
REMARK  201  A    between atoms: _499  and  _500
REMARK  202  A    between atoms: _499  and  _502
REMARK  203  A    between atoms: _502  and  _503
REMARK  204  A    between atoms: _506  and  _508
REMARK  205  A    between atoms: _508  and  _509
REMARK  206  A    between atoms: _508  and  _511
REMARK  207  A    between atoms: _511  and  _512
REMARK  208  A    between atoms: _515  and  _517
REMARK  209  A    between atoms: _517  and  _518
REMARK  210  A    between atoms: _517  and  _520
REMARK  211  A    between atoms: _520  and  _521
REMARK  212  A    between atoms: _526  and  _528
REMARK  213  A    between atoms: _528  and  _529
REMARK  214  A    between atoms: _528  and  _531
REMARK  215  A    between atoms: _531  and  _532
REMARK  216  A    between atoms: _532  and  _533
REMARK  217  A    between atoms: _533  and  _534
REMARK  218  A    between atoms: _543  and  _545
REMARK  219  A    between atoms: _545  and  _546
REMARK  220  A    between atoms: _545  and  _548
REMARK  221  A    between atoms: _548  and  _549
REMARK  222  A    between atoms: _549  and  _550
REMARK  223  A    between atoms: _550  and  _551
REMARK  224  A    between atoms: _560  and  _562
REMARK  225  A    between atoms: _562  and  _563
REMARK  226  A    between atoms: _562  and  _565
REMARK  227  A    between atoms: _565  and  _566
REMARK  228  A    between atoms: _568  and  _570
REMARK  229  A    between atoms: _570  and  _571
REMARK  230  A    between atoms: _570  and  _573
REMARK  231  A    between atoms: _573  and  _574
REMARK  232  A    between atoms: _574  and  _575
REMARK  233  A    between atoms: _580  and  _582
REMARK  234  A    between atoms: _582  and  _583
REMARK  235  A    between atoms: _582  and  _585
REMARK  236  A    between atoms: _585  and  _586
REMARK  237  A    between atoms: _589  and  _591
REMARK  238  A    between atoms: _591  and  _592
REMARK  239  A    between atoms: _591  and  _594
REMARK  240  A    between atoms: _594  and  _595
REMARK  241  A    between atoms: _598  and  _600
REMARK  242  A    between atoms: _600  and  _601
REMARK  243  A    between atoms: _600  and  _603
REMARK  244  A    between atoms: _606  and  _608
REMARK  245  A    between atoms: _608  and  _609
REMARK  246  A    between atoms: _611  and  _613
REMARK  247  A    between atoms: _613  and  _614
REMARK  248  A    between atoms: _617  and  _619
REMARK  249  A    between atoms: _619  and  _620
REMARK  250  A    between atoms: _619  and  _622
REMARK                            x       y       z     vdW  Elec       q    Type
REMARK                         _______ _______ _______ _____ _____    ______ ____
ROOT
ATOM      1  O   HOH     1      28.803  17.503  27.447  0.00  0.00    +0.000 OA
ENDROOT
TORSDOF 0
REMARK  Name = ../refined-set-2016/3lpi/3lpi_pocket.pdb
REMARK  250 active torsions:
REMARK  status: ('A' for Active; 'I' for Inactive)
REMARK    1  A    between atoms: _1  and  _3
REMARK    2  A    between atoms: _3  and  _4
REMARK    3  A    between atoms: _3  and  _6
REMARK    4  A    between atoms: _6  and  _7
REMARK    5  A    between atoms: _7  and  _8
REMARK    6  A    between atoms: _8  and  _9
REMARK    7  A    between atoms: _9  and  _10
REMARK    8  A    between atoms: _14  and  _16
REMARK    9  A    between atoms: _16  and  _17
REMARK   10  A    between atoms: _16  and  _19
REMARK   11  A    between atoms: _19  and  _20
REMARK   12  A    between atoms: _22  and  _24
REMARK   13  A    between atoms: _24  and  _25
REMARK   14  A    between atoms: _27  and  _29
REMARK   15  A    between atoms: _29  and  _30
REMARK   16  A    between atoms: _29  and  _32
REMARK   17  A    between atoms: _32  and  _33
REMARK   18  A    between atoms: _33  and  _34
REMARK   19  A    between atoms: _39  and  _41
REMARK   20  A    between atoms: _41  and  _42
REMARK   21  A    between atoms: _44  and  _46
REMARK   22  A    between atoms: _46  and  _47
REMARK   23  A    between atoms: _46  and  _49
REMARK   24  A    between atoms: _49  and  _50
REMARK   25  A    between atoms: _55  and  _56
REMARK   26  A    between atoms: _58  and  _60
REMARK   27  A    between atoms: _60  and  _61
REMARK   28  A    between atoms: _60  and  _63
REMARK   29  A    between atoms: _63  and  _64
REMARK   30  A    between atoms: _67  and  _69
REMARK   31  A    between atoms: _69  and  _70
REMARK   32  A    between atoms: _69  and  _72
REMARK   33  A    between atoms: _75  and  _77
REMARK   34  A    between atoms: _77  and  _78
REMARK   35  A    between atoms: _77  and  _80
REMARK   36  A    between atoms: _80  and  _81
REMARK   37  A    between atoms: _84  and  _86
REMARK   38  A    between atoms: _86  and  _87
REMARK   39  A    between atoms: _86  and  _89
REMARK   40  A    between atoms: _89  and  _90
REMARK   41  A    between atoms: _93  and  _95
REMARK   42  A    between atoms: _95  and  _96
REMARK   43  A    between atoms: _98  and  _100
REMARK   44  A    between atoms: _100  and  _101
REMARK   45  A    between atoms: _100  and  _103
REMARK   46  A    between atoms: _103  and  _104
REMARK   47  A    between atoms: _106  and  _108
REMARK   48  A    between atoms: _108  and  _109
REMARK   49  A    between atoms: _108  and  _111
REMARK   50  A    between atoms: _111  and  _112
REMARK   51  A    between atoms: _114  and  _116
REMARK   52  A    between atoms: _116  and  _117
REMARK   53  A    between atoms: _116  and  _119
REMARK   54  A    between atoms: _119  and  _120
REMARK   55  A    between atoms: _125  and  _127
REMARK   56  A    between atoms: _127  and  _128
REMARK   57  A    between atoms: _127  and  _130
REMARK   58  A    between atoms: _130  and  _131
REMARK   59  A    between atoms: _136  and  _137
REMARK   60  A    between atoms: _139  and  _141
REMARK   61  A    between atoms: _141  and  _142
REMARK   62  A    between atoms: _141  and  _144
REMARK   63  A    between atoms: _148  and  _149
REMARK   64  A    between atoms: _154  and  _156
REMARK   65  A    between atoms: _156  and  _157
REMARK   66  A    between atoms: _156  and  _159
REMARK   67  A    between atoms: _159  and  _160
REMARK   68  A    between atoms: _165  and  _166
REMARK   69  A    between atoms: _168  and  _170
REMARK   70  A    between atoms: _170  and  _171
REMARK   71  A    between atoms: _170  and  _173
REMARK   72  A    between atoms: _173  and  _174
REMARK   73  A    between atoms: _177  and  _179
REMARK   74  A    between atoms: _179  and  _180
REMARK   75  A    between atoms: _179  and  _182
REMARK   76  A    between atoms: _182  and  _183
REMARK   77  A    between atoms: _183  and  _184
REMARK   78  A    between atoms: _189  and  _191
REMARK   79  A    between atoms: _191  and  _192
REMARK   80  A    between atoms: _194  and  _196
REMARK   81  A    between atoms: _196  and  _197
REMARK   82  A    between atoms: _196  and  _199
REMARK   83  A    between atoms: _199  and  _200
REMARK   84  A    between atoms: _200  and  _201
REMARK   85  A    between atoms: _201  and  _202
REMARK   86  A    between atoms: _202  and  _203
REMARK   87  A    between atoms: _207  and  _209
REMARK   88  A    between atoms: _209  and  _210
REMARK   89  A    between atoms: _209  and  _212
REMARK   90  A    between atoms: _212  and  _213
REMARK   91  A    between atoms: _223  and  _225
REMARK   92  A    between atoms: _225  and  _226
REMARK   93  A    between atoms: _225  and  _228
REMARK   94  A    between atoms: _228  and  _229
REMARK   95  A    between atoms: _232  and  _234
REMARK   96  A    between atoms: _234  and  _235
REMARK   97  A    between atoms: _234  and  _237
REMARK   98  A    between atoms: _237  and  _238
REMARK   99  A    between atoms: _238  and  _239
REMARK  100  A    between atoms: _239  and  _240
REMARK  101  A    between atoms: _240  and  _241
REMARK  102  A    between atoms: _245  and  _247
REMARK  103  A    between atoms: _247  and  _248
REMARK  104  A    between atoms: _247  and  _250
REMARK  105  A    between atoms: _250  and  _251
REMARK  106  A    between atoms: _257  and  _259
REMARK  107  A    between atoms: _259  and  _260
REMARK  108  A    between atoms: _259  and  _262
REMARK  109  A    between atoms: _262  and  _263
REMARK  110  A    between atoms: _269  and  _271
REMARK  111  A    between atoms: _271  and  _272
REMARK  112  A    between atoms: _271  and  _274
REMARK  113  A    between atoms: _274  and  _275
REMARK  114  A    between atoms: _278  and  _280
REMARK  115  A    between atoms: _280  and  _281
REMARK  116  A    between atoms: _280  and  _283
REMARK  117  A    between atoms: _283  and  _284
REMARK  118  A    between atoms: _286  and  _288
REMARK  119  A    between atoms: _288  and  _289
REMARK  120  A    between atoms: _288  and  _291
REMARK  121  A    between atoms: _291  and  _292
REMARK  122  A    between atoms: _302  and  _304
REMARK  123  A    between atoms: _304  and  _305
REMARK  124  A    between atoms: _307  and  _309
REMARK  125  A    between atoms: _309  and  _310
REMARK  126  A    between atoms: _309  and  _312
REMARK  127  A    between atoms: _312  and  _313
REMARK  128  A    between atoms: _316  and  _318
REMARK  129  A    between atoms: _318  and  _319
REMARK  130  A    between atoms: _318  and  _321
REMARK  131  A    between atoms: _321  and  _322
REMARK  132  A    between atoms: _325  and  _327
REMARK  133  A    between atoms: _327  and  _328
REMARK  134  A    between atoms: _330  and  _332
REMARK  135  A    between atoms: _332  and  _333
REMARK  136  A    between atoms: _332  and  _335
REMARK  137  A    between atoms: _335  and  _336
REMARK  138  A    between atoms: _339  and  _341
REMARK  139  A    between atoms: _341  and  _342
REMARK  140  A    between atoms: _345  and  _347
REMARK  141  A    between atoms: _347  and  _348
REMARK  142  A    between atoms: _347  and  _350
REMARK  143  A    between atoms: _350  and  _351
REMARK  144  A    between atoms: _356  and  _357
REMARK  145  A    between atoms: _359  and  _361
REMARK  146  A    between atoms: _361  and  _362
REMARK  147  A    between atoms: _361  and  _364
REMARK  148  A    between atoms: _364  and  _365
REMARK  149  A    between atoms: _365  and  _366
REMARK  150  A    between atoms: _369  and  _371
REMARK  151  A    between atoms: _371  and  _372
REMARK  152  A    between atoms: _371  and  _374
REMARK  153  A    between atoms: _374  and  _375
REMARK  154  A    between atoms: _378  and  _380
REMARK  155  A    between atoms: _380  and  _381
REMARK  156  A    between atoms: _384  and  _386
REMARK  157  A    between atoms: _386  and  _387
REMARK  158  A    between atoms: _386  and  _389
REMARK  159  A    between atoms: _389  and  _390
REMARK  160  A    between atoms: _390  and  _391
REMARK  161  A    between atoms: _391  and  _392
REMARK  162  A    between atoms: _401  and  _403
REMARK  163  A    between atoms: _403  and  _404
REMARK  164  A    between atoms: _403  and  _406
REMARK  165  A    between atoms: _406  and  _407
REMARK  166  A    between atoms: _417  and  _419
REMARK  167  A    between atoms: _419  and  _420
REMARK  168  A    between atoms: _419  and  _422
REMARK  169  A    between atoms: _422  and  _423
REMARK  170  A    between atoms: _428  and  _429
REMARK  171  A    between atoms: _431  and  _433
REMARK  172  A    between atoms: _433  and  _434
REMARK  173  A    between atoms: _433  and  _436
REMARK  174  A    between atoms: _436  and  _437
REMARK  175  A    between atoms: _442  and  _443
REMARK  176  A    between atoms: _445  and  _447
REMARK  177  A    between atoms: _447  and  _448
REMARK  178  A    between atoms: _447  and  _450
REMARK  179  A    between atoms: _450  and  _451
REMARK  180  A    between atoms: _451  and  _452
REMARK  181  A    between atoms: _452  and  _453
REMARK  182  A    between atoms: _453  and  _454
REMARK  183  A    between atoms: _458  and  _460
REMARK  184  A    between atoms: _460  and  _461
REMARK  185  A    between atoms: _460  and  _463
REMARK  186  A    between atoms: _463  and  _464
REMARK  187  A    between atoms: _467  and  _469
REMARK  188  A    between atoms: _469  and  _470
REMARK  189  A    between atoms: _469  and  _472
REMARK  190  A    between atoms: _475  and  _477
REMARK  191  A    between atoms: _477  and  _478
REMARK  192  A    between atoms: _477  and  _480
REMARK  193  A    between atoms: _480  and  _481
REMARK  194  A    between atoms: _484  and  _486
REMARK  195  A    between atoms: _486  and  _487
REMARK  196  A    between atoms: _486  and  _489
REMARK  197  A    between atoms: _489  and  _490
REMARK  198  A    between atoms: _492  and  _494
REMARK  199  A    between atoms: _494  and  _495
REMARK  200  A    between atoms: _497  and  _499
REMARK  201  A    between atoms: _499  and  _500
REMARK  202  A    between atoms: _499  and  _502
REMARK  203  A    between atoms: _502  and  _503
REMARK  204  A    between atoms: _506  and  _508
REMARK  205  A    between atoms: _508  and  _509
REMARK  206  A    between atoms: _508  and  _511
REMARK  207  A    between atoms: _511  and  _512
REMARK  208  A    between atoms: _515  and  _517
REMARK  209  A    between atoms: _517  and  _518
REMARK  210  A    between atoms: _517  and  _520
REMARK  211  A    between atoms: _520  and  _521
REMARK  212  A    between atoms: _526  and  _528
REMARK  213  A    between atoms: _528  and  _529
REMARK  214  A    between atoms: _528  and  _531
REMARK  215  A    between atoms: _531  and  _532
REMARK  216  A    between atoms: _532  and  _533
REMARK  217  A    between atoms: _533  and  _534
REMARK  218  A    between atoms: _543  and  _545
REMARK  219  A    between atoms: _545  and  _546
REMARK  220  A    between atoms: _545  and  _548
REMARK  221  A    between atoms: _548  and  _549
REMARK  222  A    between atoms: _549  and  _550
REMARK  223  A    between atoms: _550  and  _551
REMARK  224  A    between atoms: _560  and  _562
REMARK  225  A    between atoms: _562  and  _563
REMARK  226  A    between atoms: _562  and  _565
REMARK  227  A    between atoms: _565  and  _566
REMARK  228  A    between atoms: _568  and  _570
REMARK  229  A    between atoms: _570  and  _571
REMARK  230  A    between atoms: _570  and  _573
REMARK  231  A    between atoms: _573  and  _574
REMARK  232  A    between atoms: _574  and  _575
REMARK  233  A    between atoms: _580  and  _582
REMARK  234  A    between atoms: _582  and  _583
REMARK  235  A    between atoms: _582  and  _585
REMARK  236  A    between atoms: _585  and  _586
REMARK  237  A    between atoms: _589  and  _591
REMARK  238  A    between atoms: _591  and  _592
REMARK  239  A    between atoms: _591  and  _594
REMARK  240  A    between atoms: _594  and  _595
REMARK  241  A    between atoms: _598  and  _600
REMARK  242  A    between atoms: _600  and  _601
REMARK  243  A    between atoms: _600  and  _603
REMARK  244  A    between atoms: _606  and  _608
REMARK  245  A    between atoms: _608  and  _609
REMARK  246  A    between atoms: _611  and  _613
REMARK  247  A    between atoms: _613  and  _614
REMARK  248  A    between atoms: _617  and  _619
REMARK  249  A    between atoms: _619  and  _620
REMARK  250  A    between atoms: _619  and  _622
REMARK                            x       y       z     vdW  Elec       q    Type
REMARK                         _______ _______ _______ _____ _____    ______ ____
ROOT
ATOM      1  O   HOH     1      31.105  16.316  12.838  0.00  0.00    +0.000 OA
ENDROOT
TORSDOF 0
REMARK  Name = ../refined-set-2016/3lpi/3lpi_pocket.pdb
REMARK  250 active torsions:
REMARK  status: ('A' for Active; 'I' for Inactive)
REMARK    1  A    between atoms: _1  and  _3
REMARK    2  A    between atoms: _3  and  _4
REMARK    3  A    between atoms: _3  and  _6
REMARK    4  A    between atoms: _6  and  _7
REMARK    5  A    between atoms: _7  and  _8
REMARK    6  A    between atoms: _8  and  _9
REMARK    7  A    between atoms: _9  and  _10
REMARK    8  A    between atoms: _14  and  _16
REMARK    9  A    between atoms: _16  and  _17
REMARK   10  A    between atoms: _16  and  _19
REMARK   11  A    between atoms: _19  and  _20
REMARK   12  A    between atoms: _22  and  _24
REMARK   13  A    between atoms: _24  and  _25
REMARK   14  A    between atoms: _27  and  _29
REMARK   15  A    between atoms: _29  and  _30
REMARK   16  A    between atoms: _29  and  _32
REMARK   17  A    between atoms: _32  and  _33
REMARK   18  A    between atoms: _33  and  _34
REMARK   19  A    between atoms: _39  and  _41
REMARK   20  A    between atoms: _41  and  _42
REMARK   21  A    between atoms: _44  and  _46
REMARK   22  A    between atoms: _46  and  _47
REMARK   23  A    between atoms: _46  and  _49
REMARK   24  A    between atoms: _49  and  _50
REMARK   25  A    between atoms: _55  and  _56
REMARK   26  A    between atoms: _58  and  _60
REMARK   27  A    between atoms: _60  and  _61
REMARK   28  A    between atoms: _60  and  _63
REMARK   29  A    between atoms: _63  and  _64
REMARK   30  A    between atoms: _67  and  _69
REMARK   31  A    between atoms: _69  and  _70
REMARK   32  A    between atoms: _69  and  _72
REMARK   33  A    between atoms: _75  and  _77
REMARK   34  A    between atoms: _77  and  _78
REMARK   35  A    between atoms: _77  and  _80
REMARK   36  A    between atoms: _80  and  _81
REMARK   37  A    between atoms: _84  and  _86
REMARK   38  A    between atoms: _86  and  _87
REMARK   39  A    between atoms: _86  and  _89
REMARK   40  A    between atoms: _89  and  _90
REMARK   41  A    between atoms: _93  and  _95
REMARK   42  A    between atoms: _95  and  _96
REMARK   43  A    between atoms: _98  and  _100
REMARK   44  A    between atoms: _100  and  _101
REMARK   45  A    between atoms: _100  and  _103
REMARK   46  A    between atoms: _103  and  _104
REMARK   47  A    between atoms: _106  and  _108
REMARK   48  A    between atoms: _108  and  _109
REMARK   49  A    between atoms: _108  and  _111
REMARK   50  A    between atoms: _111  and  _112
REMARK   51  A    between atoms: _114  and  _116
REMARK   52  A    between atoms: _116  and  _117
REMARK   53  A    between atoms: _116  and  _119
REMARK   54  A    between atoms: _119  and  _120
REMARK   55  A    between atoms: _125  and  _127
REMARK   56  A    between atoms: _127  and  _128
REMARK   57  A    between atoms: _127  and  _130
REMARK   58  A    between atoms: _130  and  _131
REMARK   59  A    between atoms: _136  and  _137
REMARK   60  A    between atoms: _139  and  _141
REMARK   61  A    between atoms: _141  and  _142
REMARK   62  A    between atoms: _141  and  _144
REMARK   63  A    between atoms: _148  and  _149
REMARK   64  A    between atoms: _154  and  _156
REMARK   65  A    between atoms: _156  and  _157
REMARK   66  A    between atoms: _156  and  _159
REMARK   67  A    between atoms: _159  and  _160
REMARK   68  A    between atoms: _165  and  _166
REMARK   69  A    between atoms: _168  and  _170
REMARK   70  A    between atoms: _170  and  _171
REMARK   71  A    between atoms: _170  and  _173
REMARK   72  A    between atoms: _173  and  _174
REMARK   73  A    between atoms: _177  and  _179
REMARK   74  A    between atoms: _179  and  _180
REMARK   75  A    between atoms: _179  and  _182
REMARK   76  A    between atoms: _182  and  _183
REMARK   77  A    between atoms: _183  and  _184
REMARK   78  A    between atoms: _189  and  _191
REMARK   79  A    between atoms: _191  and  _192
REMARK   80  A    between atoms: _194  and  _196
REMARK   81  A    between atoms: _196  and  _197
REMARK   82  A    between atoms: _196  and  _199
REMARK   83  A    between atoms: _199  and  _200
REMARK   84  A    between atoms: _200  and  _201
REMARK   85  A    between atoms: _201  and  _202
REMARK   86  A    between atoms: _202  and  _203
REMARK   87  A    between atoms: _207  and  _209
REMARK   88  A    between atoms: _209  and  _210
REMARK   89  A    between atoms: _209  and  _212
REMARK   90  A    between atoms: _212  and  _213
REMARK   91  A    between atoms: _223  and  _225
REMARK   92  A    between atoms: _225  and  _226
REMARK   93  A    between atoms: _225  and  _228
REMARK   94  A    between atoms: _228  and  _229
REMARK   95  A    between atoms: _232  and  _234
REMARK   96  A    between atoms: _234  and  _235
REMARK   97  A    between atoms: _234  and  _237
REMARK   98  A    between atoms: _237  and  _238
REMARK   99  A    between atoms: _238  and  _239
REMARK  100  A    between atoms: _239  and  _240
REMARK  101  A    between atoms: _240  and  _241
REMARK  102  A    between atoms: _245  and  _247
REMARK  103  A    between atoms: _247  and  _248
REMARK  104  A    between atoms: _247  and  _250
REMARK  105  A    between atoms: _250  and  _251
REMARK  106  A    between atoms: _257  and  _259
REMARK  107  A    between atoms: _259  and  _260
REMARK  108  A    between atoms: _259  and  _262
REMARK  109  A    between atoms: _262  and  _263
REMARK  110  A    between atoms: _269  and  _271
REMARK  111  A    between atoms: _271  and  _272
REMARK  112  A    between atoms: _271  and  _274
REMARK  113  A    between atoms: _274  and  _275
REMARK  114  A    between atoms: _278  and  _280
REMARK  115  A    between atoms: _280  and  _281
REMARK  116  A    between atoms: _280  and  _283
REMARK  117  A    between atoms: _283  and  _284
REMARK  118  A    between atoms: _286  and  _288
REMARK  119  A    between atoms: _288  and  _289
REMARK  120  A    between atoms: _288  and  _291
REMARK  121  A    between atoms: _291  and  _292
REMARK  122  A    between atoms: _302  and  _304
REMARK  123  A    between atoms: _304  and  _305
REMARK  124  A    between atoms: _307  and  _309
REMARK  125  A    between atoms: _309  and  _310
REMARK  126  A    between atoms: _309  and  _312
REMARK  127  A    between atoms: _312  and  _313
REMARK  128  A    between atoms: _316  and  _318
REMARK  129  A    between atoms: _318  and  _319
REMARK  130  A    between atoms: _318  and  _321
REMARK  131  A    between atoms: _321  and  _322
REMARK  132  A    between atoms: _325  and  _327
REMARK  133  A    between atoms: _327  and  _328
REMARK  134  A    between atoms: _330  and  _332
REMARK  135  A    between atoms: _332  and  _333
REMARK  136  A    between atoms: _332  and  _335
REMARK  137  A    between atoms: _335  and  _336
REMARK  138  A    between atoms: _339  and  _341
REMARK  139  A    between atoms: _341  and  _342
REMARK  140  A    between atoms: _345  and  _347
REMARK  141  A    between atoms: _347  and  _348
REMARK  142  A    between atoms: _347  and  _350
REMARK  143  A    between atoms: _350  and  _351
REMARK  144  A    between atoms: _356  and  _357
REMARK  145  A    between atoms: _359  and  _361
REMARK  146  A    between atoms: _361  and  _362
REMARK  147  A    between atoms: _361  and  _364
REMARK  148  A    between atoms: _364  and  _365
REMARK  149  A    between atoms: _365  and  _366
REMARK  150  A    between atoms: _369  and  _371
REMARK  151  A    between atoms: _371  and  _372
REMARK  152  A    between atoms: _371  and  _374
REMARK  153  A    between atoms: _374  and  _375
REMARK  154  A    between atoms: _378  and  _380
REMARK  155  A    between atoms: _380  and  _381
REMARK  156  A    between atoms: _384  and  _386
REMARK  157  A    between atoms: _386  and  _387
REMARK  158  A    between atoms: _386  and  _389
REMARK  159  A    between atoms: _389  and  _390
REMARK  160  A    between atoms: _390  and  _391
REMARK  161  A    between atoms: _391  and  _392
REMARK  162  A    between atoms: _401  and  _403
REMARK  163  A    between atoms: _403  and  _404
REMARK  164  A    between atoms: _403  and  _406
REMARK  165  A    between atoms: _406  and  _407
REMARK  166  A    between atoms: _417  and  _419
REMARK  167  A    between atoms: _419  and  _420
REMARK  168  A    between atoms: _419  and  _422
REMARK  169  A    between atoms: _422  and  _423
REMARK  170  A    between atoms: _428  and  _429
REMARK  171  A    between atoms: _431  and  _433
REMARK  172  A    between atoms: _433  and  _434
REMARK  173  A    between atoms: _433  and  _436
REMARK  174  A    between atoms: _436  and  _437
REMARK  175  A    between atoms: _442  and  _443
REMARK  176  A    between atoms: _445  and  _447
REMARK  177  A    between atoms: _447  and  _448
REMARK  178  A    between atoms: _447  and  _450
REMARK  179  A    between atoms: _450  and  _451
REMARK  180  A    between atoms: _451  and  _452
REMARK  181  A    between atoms: _452  and  _453
REMARK  182  A    between atoms: _453  and  _454
REMARK  183  A    between atoms: _458  and  _460
REMARK  184  A    between atoms: _460  and  _461
REMARK  185  A    between atoms: _460  and  _463
REMARK  186  A    between atoms: _463  and  _464
REMARK  187  A    between atoms: _467  and  _469
REMARK  188  A    between atoms: _469  and  _470
REMARK  189  A    between atoms: _469  and  _472
REMARK  190  A    between atoms: _475  and  _477
REMARK  191  A    between atoms: _477  and  _478
REMARK  192  A    between atoms: _477  and  _480
REMARK  193  A    between atoms: _480  and  _481
REMARK  194  A    between atoms: _484  and  _486
REMARK  195  A    between atoms: _486  and  _487
REMARK  196  A    between atoms: _486  and  _489
REMARK  197  A    between atoms: _489  and  _490
REMARK  198  A    between atoms: _492  and  _494
REMARK  199  A    between atoms: _494  and  _495
REMARK  200  A    between atoms: _497  and  _499
REMARK  201  A    between atoms: _499  and  _500
REMARK  202  A    between atoms: _499  and  _502
REMARK  203  A    between atoms: _502  and  _503
REMARK  204  A    between atoms: _506  and  _508
REMARK  205  A    between atoms: _508  and  _509
REMARK  206  A    between atoms: _508  and  _511
REMARK  207  A    between atoms: _511  and  _512
REMARK  208  A    between atoms: _515  and  _517
REMARK  209  A    between atoms: _517  and  _518
REMARK  210  A    between atoms: _517  and  _520
REMARK  211  A    between atoms: _520  and  _521
REMARK  212  A    between atoms: _526  and  _528
REMARK  213  A    between atoms: _528  and  _529
REMARK  214  A    between atoms: _528  and  _531
REMARK  215  A    between atoms: _531  and  _532
REMARK  216  A    between atoms: _532  and  _533
REMARK  217  A    between atoms: _533  and  _534
REMARK  218  A    between atoms: _543  and  _545
REMARK  219  A    between atoms: _545  and  _546
REMARK  220  A    between atoms: _545  and  _548
REMARK  221  A    between atoms: _548  and  _549
REMARK  222  A    between atoms: _549  and  _550
REMARK  223  A    between atoms: _550  and  _551
REMARK  224  A    between atoms: _560  and  _562
REMARK  225  A    between atoms: _562  and  _563
REMARK  226  A    between atoms: _562  and  _565
REMARK  227  A    between atoms: _565  and  _566
REMARK  228  A    between atoms: _568  and  _570
REMARK  229  A    between atoms: _570  and  _571
REMARK  230  A    between atoms: _570  and  _573
REMARK  231  A    between atoms: _573  and  _574
REMARK  232  A    between atoms: _574  and  _575
REMARK  233  A    between atoms: _580  and  _582
REMARK  234  A    between atoms: _582  and  _583
REMARK  235  A    between atoms: _582  and  _585
REMARK  236  A    between atoms: _585  and  _586
REMARK  237  A    between atoms: _589  and  _591
REMARK  238  A    between atoms: _591  and  _592
REMARK  239  A    between atoms: _591  and  _594
REMARK  240  A    between atoms: _594  and  _595
REMARK  241  A    between atoms: _598  and  _600
REMARK  242  A    between atoms: _600  and  _601
REMARK  243  A    between atoms: _600  and  _603
REMARK  244  A    between atoms: _606  and  _608
REMARK  245  A    between atoms: _608  and  _609
REMARK  246  A    between atoms: _611  and  _613
REMARK  247  A    between atoms: _613  and  _614
REMARK  248  A    between atoms: _617  and  _619
REMARK  249  A    between atoms: _619  and  _620
REMARK  250  A    between atoms: _619  and  _622
REMARK                            x       y       z     vdW  Elec       q    Type
REMARK                         _______ _______ _______ _____ _____    ______ ____
ROOT
ATOM      1  O   HOH     1      28.521  16.365  16.424  0.00  0.00    +0.000 OA
ENDROOT
TORSDOF 0
REMARK  Name = ../refined-set-2016/3lpi/3lpi_pocket.pdb
REMARK  250 active torsions:
REMARK  status: ('A' for Active; 'I' for Inactive)
REMARK    1  A    between atoms: _1  and  _3
REMARK    2  A    between atoms: _3  and  _4
REMARK    3  A    between atoms: _3  and  _6
REMARK    4  A    between atoms: _6  and  _7
REMARK    5  A    between atoms: _7  and  _8
REMARK    6  A    between atoms: _8  and  _9
REMARK    7  A    between atoms: _9  and  _10
REMARK    8  A    between atoms: _14  and  _16
REMARK    9  A    between atoms: _16  and  _17
REMARK   10  A    between atoms: _16  and  _19
REMARK   11  A    between atoms: _19  and  _20
REMARK   12  A    between atoms: _22  and  _24
REMARK   13  A    between atoms: _24  and  _25
REMARK   14  A    between atoms: _27  and  _29
REMARK   15  A    between atoms: _29  and  _30
REMARK   16  A    between atoms: _29  and  _32
REMARK   17  A    between atoms: _32  and  _33
REMARK   18  A    between atoms: _33  and  _34
REMARK   19  A    between atoms: _39  and  _41
REMARK   20  A    between atoms: _41  and  _42
REMARK   21  A    between atoms: _44  and  _46
REMARK   22  A    between atoms: _46  and  _47
REMARK   23  A    between atoms: _46  and  _49
REMARK   24  A    between atoms: _49  and  _50
REMARK   25  A    between atoms: _55  and  _56
REMARK   26  A    between atoms: _58  and  _60
REMARK   27  A    between atoms: _60  and  _61
REMARK   28  A    between atoms: _60  and  _63
REMARK   29  A    between atoms: _63  and  _64
REMARK   30  A    between atoms: _67  and  _69
REMARK   31  A    between atoms: _69  and  _70
REMARK   32  A    between atoms: _69  and  _72
REMARK   33  A    between atoms: _75  and  _77
REMARK   34  A    between atoms: _77  and  _78
REMARK   35  A    between atoms: _77  and  _80
REMARK   36  A    between atoms: _80  and  _81
REMARK   37  A    between atoms: _84  and  _86
REMARK   38  A    between atoms: _86  and  _87
REMARK   39  A    between atoms: _86  and  _89
REMARK   40  A    between atoms: _89  and  _90
REMARK   41  A    between atoms: _93  and  _95
REMARK   42  A    between atoms: _95  and  _96
REMARK   43  A    between atoms: _98  and  _100
REMARK   44  A    between atoms: _100  and  _101
REMARK   45  A    between atoms: _100  and  _103
REMARK   46  A    between atoms: _103  and  _104
REMARK   47  A    between atoms: _106  and  _108
REMARK   48  A    between atoms: _108  and  _109
REMARK   49  A    between atoms: _108  and  _111
REMARK   50  A    between atoms: _111  and  _112
REMARK   51  A    between atoms: _114  and  _116
REMARK   52  A    between atoms: _116  and  _117
REMARK   53  A    between atoms: _116  and  _119
REMARK   54  A    between atoms: _119  and  _120
REMARK   55  A    between atoms: _125  and  _127
REMARK   56  A    between atoms: _127  and  _128
REMARK   57  A    between atoms: _127  and  _130
REMARK   58  A    between atoms: _130  and  _131
REMARK   59  A    between atoms: _136  and  _137
REMARK   60  A    between atoms: _139  and  _141
REMARK   61  A    between atoms: _141  and  _142
REMARK   62  A    between atoms: _141  and  _144
REMARK   63  A    between atoms: _148  and  _149
REMARK   64  A    between atoms: _154  and  _156
REMARK   65  A    between atoms: _156  and  _157
REMARK   66  A    between atoms: _156  and  _159
REMARK   67  A    between atoms: _159  and  _160
REMARK   68  A    between atoms: _165  and  _166
REMARK   69  A    between atoms: _168  and  _170
REMARK   70  A    between atoms: _170  and  _171
REMARK   71  A    between atoms: _170  and  _173
REMARK   72  A    between atoms: _173  and  _174
REMARK   73  A    between atoms: _177  and  _179
REMARK   74  A    between atoms: _179  and  _180
REMARK   75  A    between atoms: _179  and  _182
REMARK   76  A    between atoms: _182  and  _183
REMARK   77  A    between atoms: _183  and  _184
REMARK   78  A    between atoms: _189  and  _191
REMARK   79  A    between atoms: _191  and  _192
REMARK   80  A    between atoms: _194  and  _196
REMARK   81  A    between atoms: _196  and  _197
REMARK   82  A    between atoms: _196  and  _199
REMARK   83  A    between atoms: _199  and  _200
REMARK   84  A    between atoms: _200  and  _201
REMARK   85  A    between atoms: _201  and  _202
REMARK   86  A    between atoms: _202  and  _203
REMARK   87  A    between atoms: _207  and  _209
REMARK   88  A    between atoms: _209  and  _210
REMARK   89  A    between atoms: _209  and  _212
REMARK   90  A    between atoms: _212  and  _213
REMARK   91  A    between atoms: _223  and  _225
REMARK   92  A    between atoms: _225  and  _226
REMARK   93  A    between atoms: _225  and  _228
REMARK   94  A    between atoms: _228  and  _229
REMARK   95  A    between atoms: _232  and  _234
REMARK   96  A    between atoms: _234  and  _235
REMARK   97  A    between atoms: _234  and  _237
REMARK   98  A    between atoms: _237  and  _238
REMARK   99  A    between atoms: _238  and  _239
REMARK  100  A    between atoms: _239  and  _240
REMARK  101  A    between atoms: _240  and  _241
REMARK  102  A    between atoms: _245  and  _247
REMARK  103  A    between atoms: _247  and  _248
REMARK  104  A    between atoms: _247  and  _250
REMARK  105  A    between atoms: _250  and  _251
REMARK  106  A    between atoms: _257  and  _259
REMARK  107  A    between atoms: _259  and  _260
REMARK  108  A    between atoms: _259  and  _262
REMARK  109  A    between atoms: _262  and  _263
REMARK  110  A    between atoms: _269  and  _271
REMARK  111  A    between atoms: _271  and  _272
REMARK  112  A    between atoms: _271  and  _274
REMARK  113  A    between atoms: _274  and  _275
REMARK  114  A    between atoms: _278  and  _280
REMARK  115  A    between atoms: _280  and  _281
REMARK  116  A    between atoms: _280  and  _283
REMARK  117  A    between atoms: _283  and  _284
REMARK  118  A    between atoms: _286  and  _288
REMARK  119  A    between atoms: _288  and  _289
REMARK  120  A    between atoms: _288  and  _291
REMARK  121  A    between atoms: _291  and  _292
REMARK  122  A    between atoms: _302  and  _304
REMARK  123  A    between atoms: _304  and  _305
REMARK  124  A    between atoms: _307  and  _309
REMARK  125  A    between atoms: _309  and  _310
REMARK  126  A    between atoms: _309  and  _312
REMARK  127  A    between atoms: _312  and  _313
REMARK  128  A    between atoms: _316  and  _318
REMARK  129  A    between atoms: _318  and  _319
REMARK  130  A    between atoms: _318  and  _321
REMARK  131  A    between atoms: _321  and  _322
REMARK  132  A    between atoms: _325  and  _327
REMARK  133  A    between atoms: _327  and  _328
REMARK  134  A    between atoms: _330  and  _332
REMARK  135  A    between atoms: _332  and  _333
REMARK  136  A    between atoms: _332  and  _335
REMARK  137  A    between atoms: _335  and  _336
REMARK  138  A    between atoms: _339  and  _341
REMARK  139  A    between atoms: _341  and  _342
REMARK  140  A    between atoms: _345  and  _347
REMARK  141  A    between atoms: _347  and  _348
REMARK  142  A    between atoms: _347  and  _350
REMARK  143  A    between atoms: _350  and  _351
REMARK  144  A    between atoms: _356  and  _357
REMARK  145  A    between atoms: _359  and  _361
REMARK  146  A    between atoms: _361  and  _362
REMARK  147  A    between atoms: _361  and  _364
REMARK  148  A    between atoms: _364  and  _365
REMARK  149  A    between atoms: _365  and  _366
REMARK  150  A    between atoms: _369  and  _371
REMARK  151  A    between atoms: _371  and  _372
REMARK  152  A    between atoms: _371  and  _374
REMARK  153  A    between atoms: _374  and  _375
REMARK  154  A    between atoms: _378  and  _380
REMARK  155  A    between atoms: _380  and  _381
REMARK  156  A    between atoms: _384  and  _386
REMARK  157  A    between atoms: _386  and  _387
REMARK  158  A    between atoms: _386  and  _389
REMARK  159  A    between atoms: _389  and  _390
REMARK  160  A    between atoms: _390  and  _391
REMARK  161  A    between atoms: _391  and  _392
REMARK  162  A    between atoms: _401  and  _403
REMARK  163  A    between atoms: _403  and  _404
REMARK  164  A    between atoms: _403  and  _406
REMARK  165  A    between atoms: _406  and  _407
REMARK  166  A    between atoms: _417  and  _419
REMARK  167  A    between atoms: _419  and  _420
REMARK  168  A    between atoms: _419  and  _422
REMARK  169  A    between atoms: _422  and  _423
REMARK  170  A    between atoms: _428  and  _429
REMARK  171  A    between atoms: _431  and  _433
REMARK  172  A    between atoms: _433  and  _434
REMARK  173  A    between atoms: _433  and  _436
REMARK  174  A    between atoms: _436  and  _437
REMARK  175  A    between atoms: _442  and  _443
REMARK  176  A    between atoms: _445  and  _447
REMARK  177  A    between atoms: _447  and  _448
REMARK  178  A    between atoms: _447  and  _450
REMARK  179  A    between atoms: _450  and  _451
REMARK  180  A    between atoms: _451  and  _452
REMARK  181  A    between atoms: _452  and  _453
REMARK  182  A    between atoms: _453  and  _454
REMARK  183  A    between atoms: _458  and  _460
REMARK  184  A    between atoms: _460  and  _461
REMARK  185  A    between atoms: _460  and  _463
REMARK  186  A    between atoms: _463  and  _464
REMARK  187  A    between atoms: _467  and  _469
REMARK  188  A    between atoms: _469  and  _470
REMARK  189  A    between atoms: _469  and  _472
REMARK  190  A    between atoms: _475  and  _477
REMARK  191  A    between atoms: _477  and  _478
REMARK  192  A    between atoms: _477  and  _480
REMARK  193  A    between atoms: _480  and  _481
REMARK  194  A    between atoms: _484  and  _486
REMARK  195  A    between atoms: _486  and  _487
REMARK  196  A    between atoms: _486  and  _489
REMARK  197  A    between atoms: _489  and  _490
REMARK  198  A    between atoms: _492  and  _494
REMARK  199  A    between atoms: _494  and  _495
REMARK  200  A    between atoms: _497  and  _499
REMARK  201  A    between atoms: _499  and  _500
REMARK  202  A    between atoms: _499  and  _502
REMARK  203  A    between atoms: _502  and  _503
REMARK  204  A    between atoms: _506  and  _508
REMARK  205  A    between atoms: _508  and  _509
REMARK  206  A    between atoms: _508  and  _511
REMARK  207  A    between atoms: _511  and  _512
REMARK  208  A    between atoms: _515  and  _517
REMARK  209  A    between atoms: _517  and  _518
REMARK  210  A    between atoms: _517  and  _520
REMARK  211  A    between atoms: _520  and  _521
REMARK  212  A    between atoms: _526  and  _528
REMARK  213  A    between atoms: _528  and  _529
REMARK  214  A    between atoms: _528  and  _531
REMARK  215  A    between atoms: _531  and  _532
REMARK  216  A    between atoms: _532  and  _533
REMARK  217  A    between atoms: _533  and  _534
REMARK  218  A    between atoms: _543  and  _545
REMARK  219  A    between atoms: _545  and  _546
REMARK  220  A    between atoms: _545  and  _548
REMARK  221  A    between atoms: _548  and  _549
REMARK  222  A    between atoms: _549  and  _550
REMARK  223  A    between atoms: _550  and  _551
REMARK  224  A    between atoms: _560  and  _562
REMARK  225  A    between atoms: _562  and  _563
REMARK  226  A    between atoms: _562  and  _565
REMARK  227  A    between atoms: _565  and  _566
REMARK  228  A    between atoms: _568  and  _570
REMARK  229  A    between atoms: _570  and  _571
REMARK  230  A    between atoms: _570  and  _573
REMARK  231  A    between atoms: _573  and  _574
REMARK  232  A    between atoms: _574  and  _575
REMARK  233  A    between atoms: _580  and  _582
REMARK  234  A    between atoms: _582  and  _583
REMARK  235  A    between atoms: _582  and  _585
REMARK  236  A    between atoms: _585  and  _586
REMARK  237  A    between atoms: _589  and  _591
REMARK  238  A    between atoms: _591  and  _592
REMARK  239  A    between atoms: _591  and  _594
REMARK  240  A    between atoms: _594  and  _595
REMARK  241  A    between atoms: _598  and  _600
REMARK  242  A    between atoms: _600  and  _601
REMARK  243  A    between atoms: _600  and  _603
REMARK  244  A    between atoms: _606  and  _608
REMARK  245  A    between atoms: _608  and  _609
REMARK  246  A    between atoms: _611  and  _613
REMARK  247  A    between atoms: _613  and  _614
REMARK  248  A    between atoms: _617  and  _619
REMARK  249  A    between atoms: _619  and  _620
REMARK  250  A    between atoms: _619  and  _622
REMARK                            x       y       z     vdW  Elec       q    Type
REMARK                         _______ _______ _______ _____ _____    ______ ____
ROOT
ATOM      1  O   HOH     1      13.305  12.397  21.913  0.00  0.00    +0.000 OA
ENDROOT
TORSDOF 0
REMARK  Name = ../refined-set-2016/3lpi/3lpi_pocket.pdb
REMARK  250 active torsions:
REMARK  status: ('A' for Active; 'I' for Inactive)
REMARK    1  A    between atoms: _1  and  _3
REMARK    2  A    between atoms: _3  and  _4
REMARK    3  A    between atoms: _3  and  _6
REMARK    4  A    between atoms: _6  and  _7
REMARK    5  A    between atoms: _7  and  _8
REMARK    6  A    between atoms: _8  and  _9
REMARK    7  A    between atoms: _9  and  _10
REMARK    8  A    between atoms: _14  and  _16
REMARK    9  A    between atoms: _16  and  _17
REMARK   10  A    between atoms: _16  and  _19
REMARK   11  A    between atoms: _19  and  _20
REMARK   12  A    between atoms: _22  and  _24
REMARK   13  A    between atoms: _24  and  _25
REMARK   14  A    between atoms: _27  and  _29
REMARK   15  A    between atoms: _29  and  _30
REMARK   16  A    between atoms: _29  and  _32
REMARK   17  A    between atoms: _32  and  _33
REMARK   18  A    between atoms: _33  and  _34
REMARK   19  A    between atoms: _39  and  _41
REMARK   20  A    between atoms: _41  and  _42
REMARK   21  A    between atoms: _44  and  _46
REMARK   22  A    between atoms: _46  and  _47
REMARK   23  A    between atoms: _46  and  _49
REMARK   24  A    between atoms: _49  and  _50
REMARK   25  A    between atoms: _55  and  _56
REMARK   26  A    between atoms: _58  and  _60
REMARK   27  A    between atoms: _60  and  _61
REMARK   28  A    between atoms: _60  and  _63
REMARK   29  A    between atoms: _63  and  _64
REMARK   30  A    between atoms: _67  and  _69
REMARK   31  A    between atoms: _69  and  _70
REMARK   32  A    between atoms: _69  and  _72
REMARK   33  A    between atoms: _75  and  _77
REMARK   34  A    between atoms: _77  and  _78
REMARK   35  A    between atoms: _77  and  _80
REMARK   36  A    between atoms: _80  and  _81
REMARK   37  A    between atoms: _84  and  _86
REMARK   38  A    between atoms: _86  and  _87
REMARK   39  A    between atoms: _86  and  _89
REMARK   40  A    between atoms: _89  and  _90
REMARK   41  A    between atoms: _93  and  _95
REMARK   42  A    between atoms: _95  and  _96
REMARK   43  A    between atoms: _98  and  _100
REMARK   44  A    between atoms: _100  and  _101
REMARK   45  A    between atoms: _100  and  _103
REMARK   46  A    between atoms: _103  and  _104
REMARK   47  A    between atoms: _106  and  _108
REMARK   48  A    between atoms: _108  and  _109
REMARK   49  A    between atoms: _108  and  _111
REMARK   50  A    between atoms: _111  and  _112
REMARK   51  A    between atoms: _114  and  _116
REMARK   52  A    between atoms: _116  and  _117
REMARK   53  A    between atoms: _116  and  _119
REMARK   54  A    between atoms: _119  and  _120
REMARK   55  A    between atoms: _125  and  _127
REMARK   56  A    between atoms: _127  and  _128
REMARK   57  A    between atoms: _127  and  _130
REMARK   58  A    between atoms: _130  and  _131
REMARK   59  A    between atoms: _136  and  _137
REMARK   60  A    between atoms: _139  and  _141
REMARK   61  A    between atoms: _141  and  _142
REMARK   62  A    between atoms: _141  and  _144
REMARK   63  A    between atoms: _148  and  _149
REMARK   64  A    between atoms: _154  and  _156
REMARK   65  A    between atoms: _156  and  _157
REMARK   66  A    between atoms: _156  and  _159
REMARK   67  A    between atoms: _159  and  _160
REMARK   68  A    between atoms: _165  and  _166
REMARK   69  A    between atoms: _168  and  _170
REMARK   70  A    between atoms: _170  and  _171
REMARK   71  A    between atoms: _170  and  _173
REMARK   72  A    between atoms: _173  and  _174
REMARK   73  A    between atoms: _177  and  _179
REMARK   74  A    between atoms: _179  and  _180
REMARK   75  A    between atoms: _179  and  _182
REMARK   76  A    between atoms: _182  and  _183
REMARK   77  A    between atoms: _183  and  _184
REMARK   78  A    between atoms: _189  and  _191
REMARK   79  A    between atoms: _191  and  _192
REMARK   80  A    between atoms: _194  and  _196
REMARK   81  A    between atoms: _196  and  _197
REMARK   82  A    between atoms: _196  and  _199
REMARK   83  A    between atoms: _199  and  _200
REMARK   84  A    between atoms: _200  and  _201
REMARK   85  A    between atoms: _201  and  _202
REMARK   86  A    between atoms: _202  and  _203
REMARK   87  A    between atoms: _207  and  _209
REMARK   88  A    between atoms: _209  and  _210
REMARK   89  A    between atoms: _209  and  _212
REMARK   90  A    between atoms: _212  and  _213
REMARK   91  A    between atoms: _223  and  _225
REMARK   92  A    between atoms: _225  and  _226
REMARK   93  A    between atoms: _225  and  _228
REMARK   94  A    between atoms: _228  and  _229
REMARK   95  A    between atoms: _232  and  _234
REMARK   96  A    between atoms: _234  and  _235
REMARK   97  A    between atoms: _234  and  _237
REMARK   98  A    between atoms: _237  and  _238
REMARK   99  A    between atoms: _238  and  _239
REMARK  100  A    between atoms: _239  and  _240
REMARK  101  A    between atoms: _240  and  _241
REMARK  102  A    between atoms: _245  and  _247
REMARK  103  A    between atoms: _247  and  _248
REMARK  104  A    between atoms: _247  and  _250
REMARK  105  A    between atoms: _250  and  _251
REMARK  106  A    between atoms: _257  and  _259
REMARK  107  A    between atoms: _259  and  _260
REMARK  108  A    between atoms: _259  and  _262
REMARK  109  A    between atoms: _262  and  _263
REMARK  110  A    between atoms: _269  and  _271
REMARK  111  A    between atoms: _271  and  _272
REMARK  112  A    between atoms: _271  and  _274
REMARK  113  A    between atoms: _274  and  _275
REMARK  114  A    between atoms: _278  and  _280
REMARK  115  A    between atoms: _280  and  _281
REMARK  116  A    between atoms: _280  and  _283
REMARK  117  A    between atoms: _283  and  _284
REMARK  118  A    between atoms: _286  and  _288
REMARK  119  A    between atoms: _288  and  _289
REMARK  120  A    between atoms: _288  and  _291
REMARK  121  A    between atoms: _291  and  _292
REMARK  122  A    between atoms: _302  and  _304
REMARK  123  A    between atoms: _304  and  _305
REMARK  124  A    between atoms: _307  and  _309
REMARK  125  A    between atoms: _309  and  _310
REMARK  126  A    between atoms: _309  and  _312
REMARK  127  A    between atoms: _312  and  _313
REMARK  128  A    between atoms: _316  and  _318
REMARK  129  A    between atoms: _318  and  _319
REMARK  130  A    between atoms: _318  and  _321
REMARK  131  A    between atoms: _321  and  _322
REMARK  132  A    between atoms: _325  and  _327
REMARK  133  A    between atoms: _327  and  _328
REMARK  134  A    between atoms: _330  and  _332
REMARK  135  A    between atoms: _332  and  _333
REMARK  136  A    between atoms: _332  and  _335
REMARK  137  A    between atoms: _335  and  _336
REMARK  138  A    between atoms: _339  and  _341
REMARK  139  A    between atoms: _341  and  _342
REMARK  140  A    between atoms: _345  and  _347
REMARK  141  A    between atoms: _347  and  _348
REMARK  142  A    between atoms: _347  and  _350
REMARK  143  A    between atoms: _350  and  _351
REMARK  144  A    between atoms: _356  and  _357
REMARK  145  A    between atoms: _359  and  _361
REMARK  146  A    between atoms: _361  and  _362
REMARK  147  A    between atoms: _361  and  _364
REMARK  148  A    between atoms: _364  and  _365
REMARK  149  A    between atoms: _365  and  _366
REMARK  150  A    between atoms: _369  and  _371
REMARK  151  A    between atoms: _371  and  _372
REMARK  152  A    between atoms: _371  and  _374
REMARK  153  A    between atoms: _374  and  _375
REMARK  154  A    between atoms: _378  and  _380
REMARK  155  A    between atoms: _380  and  _381
REMARK  156  A    between atoms: _384  and  _386
REMARK  157  A    between atoms: _386  and  _387
REMARK  158  A    between atoms: _386  and  _389
REMARK  159  A    between atoms: _389  and  _390
REMARK  160  A    between atoms: _390  and  _391
REMARK  161  A    between atoms: _391  and  _392
REMARK  162  A    between atoms: _401  and  _403
REMARK  163  A    between atoms: _403  and  _404
REMARK  164  A    between atoms: _403  and  _406
REMARK  165  A    between atoms: _406  and  _407
REMARK  166  A    between atoms: _417  and  _419
REMARK  167  A    between atoms: _419  and  _420
REMARK  168  A    between atoms: _419  and  _422
REMARK  169  A    between atoms: _422  and  _423
REMARK  170  A    between atoms: _428  and  _429
REMARK  171  A    between atoms: _431  and  _433
REMARK  172  A    between atoms: _433  and  _434
REMARK  173  A    between atoms: _433  and  _436
REMARK  174  A    between atoms: _436  and  _437
REMARK  175  A    between atoms: _442  and  _443
REMARK  176  A    between atoms: _445  and  _447
REMARK  177  A    between atoms: _447  and  _448
REMARK  178  A    between atoms: _447  and  _450
REMARK  179  A    between atoms: _450  and  _451
REMARK  180  A    between atoms: _451  and  _452
REMARK  181  A    between atoms: _452  and  _453
REMARK  182  A    between atoms: _453  and  _454
REMARK  183  A    between atoms: _458  and  _460
REMARK  184  A    between atoms: _460  and  _461
REMARK  185  A    between atoms: _460  and  _463
REMARK  186  A    between atoms: _463  and  _464
REMARK  187  A    between atoms: _467  and  _469
REMARK  188  A    between atoms: _469  and  _470
REMARK  189  A    between atoms: _469  and  _472
REMARK  190  A    between atoms: _475  and  _477
REMARK  191  A    between atoms: _477  and  _478
REMARK  192  A    between atoms: _477  and  _480
REMARK  193  A    between atoms: _480  and  _481
REMARK  194  A    between atoms: _484  and  _486
REMARK  195  A    between atoms: _486  and  _487
REMARK  196  A    between atoms: _486  and  _489
REMARK  197  A    between atoms: _489  and  _490
REMARK  198  A    between atoms: _492  and  _494
REMARK  199  A    between atoms: _494  and  _495
REMARK  200  A    between atoms: _497  and  _499
REMARK  201  A    between atoms: _499  and  _500
REMARK  202  A    between atoms: _499  and  _502
REMARK  203  A    between atoms: _502  and  _503
REMARK  204  A    between atoms: _506  and  _508
REMARK  205  A    between atoms: _508  and  _509
REMARK  206  A    between atoms: _508  and  _511
REMARK  207  A    between atoms: _511  and  _512
REMARK  208  A    between atoms: _515  and  _517
REMARK  209  A    between atoms: _517  and  _518
REMARK  210  A    between atoms: _517  and  _520
REMARK  211  A    between atoms: _520  and  _521
REMARK  212  A    between atoms: _526  and  _528
REMARK  213  A    between atoms: _528  and  _529
REMARK  214  A    between atoms: _528  and  _531
REMARK  215  A    between atoms: _531  and  _532
REMARK  216  A    between atoms: _532  and  _533
REMARK  217  A    between atoms: _533  and  _534
REMARK  218  A    between atoms: _543  and  _545
REMARK  219  A    between atoms: _545  and  _546
REMARK  220  A    between atoms: _545  and  _548
REMARK  221  A    between atoms: _548  and  _549
REMARK  222  A    between atoms: _549  and  _550
REMARK  223  A    between atoms: _550  and  _551
REMARK  224  A    between atoms: _560  and  _562
REMARK  225  A    between atoms: _562  and  _563
REMARK  226  A    between atoms: _562  and  _565
REMARK  227  A    between atoms: _565  and  _566
REMARK  228  A    between atoms: _568  and  _570
REMARK  229  A    between atoms: _570  and  _571
REMARK  230  A    between atoms: _570  and  _573
REMARK  231  A    between atoms: _573  and  _574
REMARK  232  A    between atoms: _574  and  _575
REMARK  233  A    between atoms: _580  and  _582
REMARK  234  A    between atoms: _582  and  _583
REMARK  235  A    between atoms: _582  and  _585
REMARK  236  A    between atoms: _585  and  _586
REMARK  237  A    between atoms: _589  and  _591
REMARK  238  A    between atoms: _591  and  _592
REMARK  239  A    between atoms: _591  and  _594
REMARK  240  A    between atoms: _594  and  _595
REMARK  241  A    between atoms: _598  and  _600
REMARK  242  A    between atoms: _600  and  _601
REMARK  243  A    between atoms: _600  and  _603
REMARK  244  A    between atoms: _606  and  _608
REMARK  245  A    between atoms: _608  and  _609
REMARK  246  A    between atoms: _611  and  _613
REMARK  247  A    between atoms: _613  and  _614
REMARK  248  A    between atoms: _617  and  _619
REMARK  249  A    between atoms: _619  and  _620
REMARK  250  A    between atoms: _619  and  _622
REMARK                            x       y       z     vdW  Elec       q    Type
REMARK                         _______ _______ _______ _____ _____    ______ ____
ROOT
ATOM      1  O   HOH     1      19.822  13.058  30.678  0.00  0.00    +0.000 OA
ENDROOT
TORSDOF 0
REMARK  Name = ../refined-set-2016/3lpi/3lpi_pocket.pdb
REMARK  250 active torsions:
REMARK  status: ('A' for Active; 'I' for Inactive)
REMARK    1  A    between atoms: _1  and  _3
REMARK    2  A    between atoms: _3  and  _4
REMARK    3  A    between atoms: _3  and  _6
REMARK    4  A    between atoms: _6  and  _7
REMARK    5  A    between atoms: _7  and  _8
REMARK    6  A    between atoms: _8  and  _9
REMARK    7  A    between atoms: _9  and  _10
REMARK    8  A    between atoms: _14  and  _16
REMARK    9  A    between atoms: _16  and  _17
REMARK   10  A    between atoms: _16  and  _19
REMARK   11  A    between atoms: _19  and  _20
REMARK   12  A    between atoms: _22  and  _24
REMARK   13  A    between atoms: _24  and  _25
REMARK   14  A    between atoms: _27  and  _29
REMARK   15  A    between atoms: _29  and  _30
REMARK   16  A    between atoms: _29  and  _32
REMARK   17  A    between atoms: _32  and  _33
REMARK   18  A    between atoms: _33  and  _34
REMARK   19  A    between atoms: _39  and  _41
REMARK   20  A    between atoms: _41  and  _42
REMARK   21  A    between atoms: _44  and  _46
REMARK   22  A    between atoms: _46  and  _47
REMARK   23  A    between atoms: _46  and  _49
REMARK   24  A    between atoms: _49  and  _50
REMARK   25  A    between atoms: _55  and  _56
REMARK   26  A    between atoms: _58  and  _60
REMARK   27  A    between atoms: _60  and  _61
REMARK   28  A    between atoms: _60  and  _63
REMARK   29  A    between atoms: _63  and  _64
REMARK   30  A    between atoms: _67  and  _69
REMARK   31  A    between atoms: _69  and  _70
REMARK   32  A    between atoms: _69  and  _72
REMARK   33  A    between atoms: _75  and  _77
REMARK   34  A    between atoms: _77  and  _78
REMARK   35  A    between atoms: _77  and  _80
REMARK   36  A    between atoms: _80  and  _81
REMARK   37  A    between atoms: _84  and  _86
REMARK   38  A    between atoms: _86  and  _87
REMARK   39  A    between atoms: _86  and  _89
REMARK   40  A    between atoms: _89  and  _90
REMARK   41  A    between atoms: _93  and  _95
REMARK   42  A    between atoms: _95  and  _96
REMARK   43  A    between atoms: _98  and  _100
REMARK   44  A    between atoms: _100  and  _101
REMARK   45  A    between atoms: _100  and  _103
REMARK   46  A    between atoms: _103  and  _104
REMARK   47  A    between atoms: _106  and  _108
REMARK   48  A    between atoms: _108  and  _109
REMARK   49  A    between atoms: _108  and  _111
REMARK   50  A    between atoms: _111  and  _112
REMARK   51  A    between atoms: _114  and  _116
REMARK   52  A    between atoms: _116  and  _117
REMARK   53  A    between atoms: _116  and  _119
REMARK   54  A    between atoms: _119  and  _120
REMARK   55  A    between atoms: _125  and  _127
REMARK   56  A    between atoms: _127  and  _128
REMARK   57  A    between atoms: _127  and  _130
REMARK   58  A    between atoms: _130  and  _131
REMARK   59  A    between atoms: _136  and  _137
REMARK   60  A    between atoms: _139  and  _141
REMARK   61  A    between atoms: _141  and  _142
REMARK   62  A    between atoms: _141  and  _144
REMARK   63  A    between atoms: _148  and  _149
REMARK   64  A    between atoms: _154  and  _156
REMARK   65  A    between atoms: _156  and  _157
REMARK   66  A    between atoms: _156  and  _159
REMARK   67  A    between atoms: _159  and  _160
REMARK   68  A    between atoms: _165  and  _166
REMARK   69  A    between atoms: _168  and  _170
REMARK   70  A    between atoms: _170  and  _171
REMARK   71  A    between atoms: _170  and  _173
REMARK   72  A    between atoms: _173  and  _174
REMARK   73  A    between atoms: _177  and  _179
REMARK   74  A    between atoms: _179  and  _180
REMARK   75  A    between atoms: _179  and  _182
REMARK   76  A    between atoms: _182  and  _183
REMARK   77  A    between atoms: _183  and  _184
REMARK   78  A    between atoms: _189  and  _191
REMARK   79  A    between atoms: _191  and  _192
REMARK   80  A    between atoms: _194  and  _196
REMARK   81  A    between atoms: _196  and  _197
REMARK   82  A    between atoms: _196  and  _199
REMARK   83  A    between atoms: _199  and  _200
REMARK   84  A    between atoms: _200  and  _201
REMARK   85  A    between atoms: _201  and  _202
REMARK   86  A    between atoms: _202  and  _203
REMARK   87  A    between atoms: _207  and  _209
REMARK   88  A    between atoms: _209  and  _210
REMARK   89  A    between atoms: _209  and  _212
REMARK   90  A    between atoms: _212  and  _213
REMARK   91  A    between atoms: _223  and  _225
REMARK   92  A    between atoms: _225  and  _226
REMARK   93  A    between atoms: _225  and  _228
REMARK   94  A    between atoms: _228  and  _229
REMARK   95  A    between atoms: _232  and  _234
REMARK   96  A    between atoms: _234  and  _235
REMARK   97  A    between atoms: _234  and  _237
REMARK   98  A    between atoms: _237  and  _238
REMARK   99  A    between atoms: _238  and  _239
REMARK  100  A    between atoms: _239  and  _240
REMARK  101  A    between atoms: _240  and  _241
REMARK  102  A    between atoms: _245  and  _247
REMARK  103  A    between atoms: _247  and  _248
REMARK  104  A    between atoms: _247  and  _250
REMARK  105  A    between atoms: _250  and  _251
REMARK  106  A    between atoms: _257  and  _259
REMARK  107  A    between atoms: _259  and  _260
REMARK  108  A    between atoms: _259  and  _262
REMARK  109  A    between atoms: _262  and  _263
REMARK  110  A    between atoms: _269  and  _271
REMARK  111  A    between atoms: _271  and  _272
REMARK  112  A    between atoms: _271  and  _274
REMARK  113  A    between atoms: _274  and  _275
REMARK  114  A    between atoms: _278  and  _280
REMARK  115  A    between atoms: _280  and  _281
REMARK  116  A    between atoms: _280  and  _283
REMARK  117  A    between atoms: _283  and  _284
REMARK  118  A    between atoms: _286  and  _288
REMARK  119  A    between atoms: _288  and  _289
REMARK  120  A    between atoms: _288  and  _291
REMARK  121  A    between atoms: _291  and  _292
REMARK  122  A    between atoms: _302  and  _304
REMARK  123  A    between atoms: _304  and  _305
REMARK  124  A    between atoms: _307  and  _309
REMARK  125  A    between atoms: _309  and  _310
REMARK  126  A    between atoms: _309  and  _312
REMARK  127  A    between atoms: _312  and  _313
REMARK  128  A    between atoms: _316  and  _318
REMARK  129  A    between atoms: _318  and  _319
REMARK  130  A    between atoms: _318  and  _321
REMARK  131  A    between atoms: _321  and  _322
REMARK  132  A    between atoms: _325  and  _327
REMARK  133  A    between atoms: _327  and  _328
REMARK  134  A    between atoms: _330  and  _332
REMARK  135  A    between atoms: _332  and  _333
REMARK  136  A    between atoms: _332  and  _335
REMARK  137  A    between atoms: _335  and  _336
REMARK  138  A    between atoms: _339  and  _341
REMARK  139  A    between atoms: _341  and  _342
REMARK  140  A    between atoms: _345  and  _347
REMARK  141  A    between atoms: _347  and  _348
REMARK  142  A    between atoms: _347  and  _350
REMARK  143  A    between atoms: _350  and  _351
REMARK  144  A    between atoms: _356  and  _357
REMARK  145  A    between atoms: _359  and  _361
REMARK  146  A    between atoms: _361  and  _362
REMARK  147  A    between atoms: _361  and  _364
REMARK  148  A    between atoms: _364  and  _365
REMARK  149  A    between atoms: _365  and  _366
REMARK  150  A    between atoms: _369  and  _371
REMARK  151  A    between atoms: _371  and  _372
REMARK  152  A    between atoms: _371  and  _374
REMARK  153  A    between atoms: _374  and  _375
REMARK  154  A    between atoms: _378  and  _380
REMARK  155  A    between atoms: _380  and  _381
REMARK  156  A    between atoms: _384  and  _386
REMARK  157  A    between atoms: _386  and  _387
REMARK  158  A    between atoms: _386  and  _389
REMARK  159  A    between atoms: _389  and  _390
REMARK  160  A    between atoms: _390  and  _391
REMARK  161  A    between atoms: _391  and  _392
REMARK  162  A    between atoms: _401  and  _403
REMARK  163  A    between atoms: _403  and  _404
REMARK  164  A    between atoms: _403  and  _406
REMARK  165  A    between atoms: _406  and  _407
REMARK  166  A    between atoms: _417  and  _419
REMARK  167  A    between atoms: _419  and  _420
REMARK  168  A    between atoms: _419  and  _422
REMARK  169  A    between atoms: _422  and  _423
REMARK  170  A    between atoms: _428  and  _429
REMARK  171  A    between atoms: _431  and  _433
REMARK  172  A    between atoms: _433  and  _434
REMARK  173  A    between atoms: _433  and  _436
REMARK  174  A    between atoms: _436  and  _437
REMARK  175  A    between atoms: _442  and  _443
REMARK  176  A    between atoms: _445  and  _447
REMARK  177  A    between atoms: _447  and  _448
REMARK  178  A    between atoms: _447  and  _450
REMARK  179  A    between atoms: _450  and  _451
REMARK  180  A    between atoms: _451  and  _452
REMARK  181  A    between atoms: _452  and  _453
REMARK  182  A    between atoms: _453  and  _454
REMARK  183  A    between atoms: _458  and  _460
REMARK  184  A    between atoms: _460  and  _461
REMARK  185  A    between atoms: _460  and  _463
REMARK  186  A    between atoms: _463  and  _464
REMARK  187  A    between atoms: _467  and  _469
REMARK  188  A    between atoms: _469  and  _470
REMARK  189  A    between atoms: _469  and  _472
REMARK  190  A    between atoms: _475  and  _477
REMARK  191  A    between atoms: _477  and  _478
REMARK  192  A    between atoms: _477  and  _480
REMARK  193  A    between atoms: _480  and  _481
REMARK  194  A    between atoms: _484  and  _486
REMARK  195  A    between atoms: _486  and  _487
REMARK  196  A    between atoms: _486  and  _489
REMARK  197  A    between atoms: _489  and  _490
REMARK  198  A    between atoms: _492  and  _494
REMARK  199  A    between atoms: _494  and  _495
REMARK  200  A    between atoms: _497  and  _499
REMARK  201  A    between atoms: _499  and  _500
REMARK  202  A    between atoms: _499  and  _502
REMARK  203  A    between atoms: _502  and  _503
REMARK  204  A    between atoms: _506  and  _508
REMARK  205  A    between atoms: _508  and  _509
REMARK  206  A    between atoms: _508  and  _511
REMARK  207  A    between atoms: _511  and  _512
REMARK  208  A    between atoms: _515  and  _517
REMARK  209  A    between atoms: _517  and  _518
REMARK  210  A    between atoms: _517  and  _520
REMARK  211  A    between atoms: _520  and  _521
REMARK  212  A    between atoms: _526  and  _528
REMARK  213  A    between atoms: _528  and  _529
REMARK  214  A    between atoms: _528  and  _531
REMARK  215  A    between atoms: _531  and  _532
REMARK  216  A    between atoms: _532  and  _533
REMARK  217  A    between atoms: _533  and  _534
REMARK  218  A    between atoms: _543  and  _545
REMARK  219  A    between atoms: _545  and  _546
REMARK  220  A    between atoms: _545  and  _548
REMARK  221  A    between atoms: _548  and  _549
REMARK  222  A    between atoms: _549  and  _550
REMARK  223  A    between atoms: _550  and  _551
REMARK  224  A    between atoms: _560  and  _562
REMARK  225  A    between atoms: _562  and  _563
REMARK  226  A    between atoms: _562  and  _565
REMARK  227  A    between atoms: _565  and  _566
REMARK  228  A    between atoms: _568  and  _570
REMARK  229  A    between atoms: _570  and  _571
REMARK  230  A    between atoms: _570  and  _573
REMARK  231  A    between atoms: _573  and  _574
REMARK  232  A    between atoms: _574  and  _575
REMARK  233  A    between atoms: _580  and  _582
REMARK  234  A    between atoms: _582  and  _583
REMARK  235  A    between atoms: _582  and  _585
REMARK  236  A    between atoms: _585  and  _586
REMARK  237  A    between atoms: _589  and  _591
REMARK  238  A    between atoms: _591  and  _592
REMARK  239  A    between atoms: _591  and  _594
REMARK  240  A    between atoms: _594  and  _595
REMARK  241  A    between atoms: _598  and  _600
REMARK  242  A    between atoms: _600  and  _601
REMARK  243  A    between atoms: _600  and  _603
REMARK  244  A    between atoms: _606  and  _608
REMARK  245  A    between atoms: _608  and  _609
REMARK  246  A    between atoms: _611  and  _613
REMARK  247  A    between atoms: _613  and  _614
REMARK  248  A    between atoms: _617  and  _619
REMARK  249  A    between atoms: _619  and  _620
REMARK  250  A    between atoms: _619  and  _622
REMARK                            x       y       z     vdW  Elec       q    Type
REMARK                         _______ _______ _______ _____ _____    ______ ____
ROOT
ATOM      1  O   HOH     1      25.756  18.584  22.168  0.00  0.00    +0.000 OA
ENDROOT
TORSDOF 0
REMARK  Name = ../refined-set-2016/3lpi/3lpi_pocket.pdb
REMARK  250 active torsions:
REMARK  status: ('A' for Active; 'I' for Inactive)
REMARK    1  A    between atoms: _1  and  _3
REMARK    2  A    between atoms: _3  and  _4
REMARK    3  A    between atoms: _3  and  _6
REMARK    4  A    between atoms: _6  and  _7
REMARK    5  A    between atoms: _7  and  _8
REMARK    6  A    between atoms: _8  and  _9
REMARK    7  A    between atoms: _9  and  _10
REMARK    8  A    between atoms: _14  and  _16
REMARK    9  A    between atoms: _16  and  _17
REMARK   10  A    between atoms: _16  and  _19
REMARK   11  A    between atoms: _19  and  _20
REMARK   12  A    between atoms: _22  and  _24
REMARK   13  A    between atoms: _24  and  _25
REMARK   14  A    between atoms: _27  and  _29
REMARK   15  A    between atoms: _29  and  _30
REMARK   16  A    between atoms: _29  and  _32
REMARK   17  A    between atoms: _32  and  _33
REMARK   18  A    between atoms: _33  and  _34
REMARK   19  A    between atoms: _39  and  _41
REMARK   20  A    between atoms: _41  and  _42
REMARK   21  A    between atoms: _44  and  _46
REMARK   22  A    between atoms: _46  and  _47
REMARK   23  A    between atoms: _46  and  _49
REMARK   24  A    between atoms: _49  and  _50
REMARK   25  A    between atoms: _55  and  _56
REMARK   26  A    between atoms: _58  and  _60
REMARK   27  A    between atoms: _60  and  _61
REMARK   28  A    between atoms: _60  and  _63
REMARK   29  A    between atoms: _63  and  _64
REMARK   30  A    between atoms: _67  and  _69
REMARK   31  A    between atoms: _69  and  _70
REMARK   32  A    between atoms: _69  and  _72
REMARK   33  A    between atoms: _75  and  _77
REMARK   34  A    between atoms: _77  and  _78
REMARK   35  A    between atoms: _77  and  _80
REMARK   36  A    between atoms: _80  and  _81
REMARK   37  A    between atoms: _84  and  _86
REMARK   38  A    between atoms: _86  and  _87
REMARK   39  A    between atoms: _86  and  _89
REMARK   40  A    between atoms: _89  and  _90
REMARK   41  A    between atoms: _93  and  _95
REMARK   42  A    between atoms: _95  and  _96
REMARK   43  A    between atoms: _98  and  _100
REMARK   44  A    between atoms: _100  and  _101
REMARK   45  A    between atoms: _100  and  _103
REMARK   46  A    between atoms: _103  and  _104
REMARK   47  A    between atoms: _106  and  _108
REMARK   48  A    between atoms: _108  and  _109
REMARK   49  A    between atoms: _108  and  _111
REMARK   50  A    between atoms: _111  and  _112
REMARK   51  A    between atoms: _114  and  _116
REMARK   52  A    between atoms: _116  and  _117
REMARK   53  A    between atoms: _116  and  _119
REMARK   54  A    between atoms: _119  and  _120
REMARK   55  A    between atoms: _125  and  _127
REMARK   56  A    between atoms: _127  and  _128
REMARK   57  A    between atoms: _127  and  _130
REMARK   58  A    between atoms: _130  and  _131
REMARK   59  A    between atoms: _136  and  _137
REMARK   60  A    between atoms: _139  and  _141
REMARK   61  A    between atoms: _141  and  _142
REMARK   62  A    between atoms: _141  and  _144
REMARK   63  A    between atoms: _148  and  _149
REMARK   64  A    between atoms: _154  and  _156
REMARK   65  A    between atoms: _156  and  _157
REMARK   66  A    between atoms: _156  and  _159
REMARK   67  A    between atoms: _159  and  _160
REMARK   68  A    between atoms: _165  and  _166
REMARK   69  A    between atoms: _168  and  _170
REMARK   70  A    between atoms: _170  and  _171
REMARK   71  A    between atoms: _170  and  _173
REMARK   72  A    between atoms: _173  and  _174
REMARK   73  A    between atoms: _177  and  _179
REMARK   74  A    between atoms: _179  and  _180
REMARK   75  A    between atoms: _179  and  _182
REMARK   76  A    between atoms: _182  and  _183
REMARK   77  A    between atoms: _183  and  _184
REMARK   78  A    between atoms: _189  and  _191
REMARK   79  A    between atoms: _191  and  _192
REMARK   80  A    between atoms: _194  and  _196
REMARK   81  A    between atoms: _196  and  _197
REMARK   82  A    between atoms: _196  and  _199
REMARK   83  A    between atoms: _199  and  _200
REMARK   84  A    between atoms: _200  and  _201
REMARK   85  A    between atoms: _201  and  _202
REMARK   86  A    between atoms: _202  and  _203
REMARK   87  A    between atoms: _207  and  _209
REMARK   88  A    between atoms: _209  and  _210
REMARK   89  A    between atoms: _209  and  _212
REMARK   90  A    between atoms: _212  and  _213
REMARK   91  A    between atoms: _223  and  _225
REMARK   92  A    between atoms: _225  and  _226
REMARK   93  A    between atoms: _225  and  _228
REMARK   94  A    between atoms: _228  and  _229
REMARK   95  A    between atoms: _232  and  _234
REMARK   96  A    between atoms: _234  and  _235
REMARK   97  A    between atoms: _234  and  _237
REMARK   98  A    between atoms: _237  and  _238
REMARK   99  A    between atoms: _238  and  _239
REMARK  100  A    between atoms: _239  and  _240
REMARK  101  A    between atoms: _240  and  _241
REMARK  102  A    between atoms: _245  and  _247
REMARK  103  A    between atoms: _247  and  _248
REMARK  104  A    between atoms: _247  and  _250
REMARK  105  A    between atoms: _250  and  _251
REMARK  106  A    between atoms: _257  and  _259
REMARK  107  A    between atoms: _259  and  _260
REMARK  108  A    between atoms: _259  and  _262
REMARK  109  A    between atoms: _262  and  _263
REMARK  110  A    between atoms: _269  and  _271
REMARK  111  A    between atoms: _271  and  _272
REMARK  112  A    between atoms: _271  and  _274
REMARK  113  A    between atoms: _274  and  _275
REMARK  114  A    between atoms: _278  and  _280
REMARK  115  A    between atoms: _280  and  _281
REMARK  116  A    between atoms: _280  and  _283
REMARK  117  A    between atoms: _283  and  _284
REMARK  118  A    between atoms: _286  and  _288
REMARK  119  A    between atoms: _288  and  _289
REMARK  120  A    between atoms: _288  and  _291
REMARK  121  A    between atoms: _291  and  _292
REMARK  122  A    between atoms: _302  and  _304
REMARK  123  A    between atoms: _304  and  _305
REMARK  124  A    between atoms: _307  and  _309
REMARK  125  A    between atoms: _309  and  _310
REMARK  126  A    between atoms: _309  and  _312
REMARK  127  A    between atoms: _312  and  _313
REMARK  128  A    between atoms: _316  and  _318
REMARK  129  A    between atoms: _318  and  _319
REMARK  130  A    between atoms: _318  and  _321
REMARK  131  A    between atoms: _321  and  _322
REMARK  132  A    between atoms: _325  and  _327
REMARK  133  A    between atoms: _327  and  _328
REMARK  134  A    between atoms: _330  and  _332
REMARK  135  A    between atoms: _332  and  _333
REMARK  136  A    between atoms: _332  and  _335
REMARK  137  A    between atoms: _335  and  _336
REMARK  138  A    between atoms: _339  and  _341
REMARK  139  A    between atoms: _341  and  _342
REMARK  140  A    between atoms: _345  and  _347
REMARK  141  A    between atoms: _347  and  _348
REMARK  142  A    between atoms: _347  and  _350
REMARK  143  A    between atoms: _350  and  _351
REMARK  144  A    between atoms: _356  and  _357
REMARK  145  A    between atoms: _359  and  _361
REMARK  146  A    between atoms: _361  and  _362
REMARK  147  A    between atoms: _361  and  _364
REMARK  148  A    between atoms: _364  and  _365
REMARK  149  A    between atoms: _365  and  _366
REMARK  150  A    between atoms: _369  and  _371
REMARK  151  A    between atoms: _371  and  _372
REMARK  152  A    between atoms: _371  and  _374
REMARK  153  A    between atoms: _374  and  _375
REMARK  154  A    between atoms: _378  and  _380
REMARK  155  A    between atoms: _380  and  _381
REMARK  156  A    between atoms: _384  and  _386
REMARK  157  A    between atoms: _386  and  _387
REMARK  158  A    between atoms: _386  and  _389
REMARK  159  A    between atoms: _389  and  _390
REMARK  160  A    between atoms: _390  and  _391
REMARK  161  A    between atoms: _391  and  _392
REMARK  162  A    between atoms: _401  and  _403
REMARK  163  A    between atoms: _403  and  _404
REMARK  164  A    between atoms: _403  and  _406
REMARK  165  A    between atoms: _406  and  _407
REMARK  166  A    between atoms: _417  and  _419
REMARK  167  A    between atoms: _419  and  _420
REMARK  168  A    between atoms: _419  and  _422
REMARK  169  A    between atoms: _422  and  _423
REMARK  170  A    between atoms: _428  and  _429
REMARK  171  A    between atoms: _431  and  _433
REMARK  172  A    between atoms: _433  and  _434
REMARK  173  A    between atoms: _433  and  _436
REMARK  174  A    between atoms: _436  and  _437
REMARK  175  A    between atoms: _442  and  _443
REMARK  176  A    between atoms: _445  and  _447
REMARK  177  A    between atoms: _447  and  _448
REMARK  178  A    between atoms: _447  and  _450
REMARK  179  A    between atoms: _450  and  _451
REMARK  180  A    between atoms: _451  and  _452
REMARK  181  A    between atoms: _452  and  _453
REMARK  182  A    between atoms: _453  and  _454
REMARK  183  A    between atoms: _458  and  _460
REMARK  184  A    between atoms: _460  and  _461
REMARK  185  A    between atoms: _460  and  _463
REMARK  186  A    between atoms: _463  and  _464
REMARK  187  A    between atoms: _467  and  _469
REMARK  188  A    between atoms: _469  and  _470
REMARK  189  A    between atoms: _469  and  _472
REMARK  190  A    between atoms: _475  and  _477
REMARK  191  A    between atoms: _477  and  _478
REMARK  192  A    between atoms: _477  and  _480
REMARK  193  A    between atoms: _480  and  _481
REMARK  194  A    between atoms: _484  and  _486
REMARK  195  A    between atoms: _486  and  _487
REMARK  196  A    between atoms: _486  and  _489
REMARK  197  A    between atoms: _489  and  _490
REMARK  198  A    between atoms: _492  and  _494
REMARK  199  A    between atoms: _494  and  _495
REMARK  200  A    between atoms: _497  and  _499
REMARK  201  A    between atoms: _499  and  _500
REMARK  202  A    between atoms: _499  and  _502
REMARK  203  A    between atoms: _502  and  _503
REMARK  204  A    between atoms: _506  and  _508
REMARK  205  A    between atoms: _508  and  _509
REMARK  206  A    between atoms: _508  and  _511
REMARK  207  A    between atoms: _511  and  _512
REMARK  208  A    between atoms: _515  and  _517
REMARK  209  A    between atoms: _517  and  _518
REMARK  210  A    between atoms: _517  and  _520
REMARK  211  A    between atoms: _520  and  _521
REMARK  212  A    between atoms: _526  and  _528
REMARK  213  A    between atoms: _528  and  _529
REMARK  214  A    between atoms: _528  and  _531
REMARK  215  A    between atoms: _531  and  _532
REMARK  216  A    between atoms: _532  and  _533
REMARK  217  A    between atoms: _533  and  _534
REMARK  218  A    between atoms: _543  and  _545
REMARK  219  A    between atoms: _545  and  _546
REMARK  220  A    between atoms: _545  and  _548
REMARK  221  A    between atoms: _548  and  _549
REMARK  222  A    between atoms: _549  and  _550
REMARK  223  A    between atoms: _550  and  _551
REMARK  224  A    between atoms: _560  and  _562
REMARK  225  A    between atoms: _562  and  _563
REMARK  226  A    between atoms: _562  and  _565
REMARK  227  A    between atoms: _565  and  _566
REMARK  228  A    between atoms: _568  and  _570
REMARK  229  A    between atoms: _570  and  _571
REMARK  230  A    between atoms: _570  and  _573
REMARK  231  A    between atoms: _573  and  _574
REMARK  232  A    between atoms: _574  and  _575
REMARK  233  A    between atoms: _580  and  _582
REMARK  234  A    between atoms: _582  and  _583
REMARK  235  A    between atoms: _582  and  _585
REMARK  236  A    between atoms: _585  and  _586
REMARK  237  A    between atoms: _589  and  _591
REMARK  238  A    between atoms: _591  and  _592
REMARK  239  A    between atoms: _591  and  _594
REMARK  240  A    between atoms: _594  and  _595
REMARK  241  A    between atoms: _598  and  _600
REMARK  242  A    between atoms: _600  and  _601
REMARK  243  A    between atoms: _600  and  _603
REMARK  244  A    between atoms: _606  and  _608
REMARK  245  A    between atoms: _608  and  _609
REMARK  246  A    between atoms: _611  and  _613
REMARK  247  A    between atoms: _613  and  _614
REMARK  248  A    between atoms: _617  and  _619
REMARK  249  A    between atoms: _619  and  _620
REMARK  250  A    between atoms: _619  and  _622
REMARK                            x       y       z     vdW  Elec       q    Type
REMARK                         _______ _______ _______ _____ _____    ______ ____
ROOT
ATOM      1  O   HOH     1      33.907   6.676  16.872  0.00  0.00    +0.000 OA
ENDROOT
TORSDOF 0
REMARK  Name = ../refined-set-2016/3lpi/3lpi_pocket.pdb
REMARK  250 active torsions:
REMARK  status: ('A' for Active; 'I' for Inactive)
REMARK    1  A    between atoms: _1  and  _3
REMARK    2  A    between atoms: _3  and  _4
REMARK    3  A    between atoms: _3  and  _6
REMARK    4  A    between atoms: _6  and  _7
REMARK    5  A    between atoms: _7  and  _8
REMARK    6  A    between atoms: _8  and  _9
REMARK    7  A    between atoms: _9  and  _10
REMARK    8  A    between atoms: _14  and  _16
REMARK    9  A    between atoms: _16  and  _17
REMARK   10  A    between atoms: _16  and  _19
REMARK   11  A    between atoms: _19  and  _20
REMARK   12  A    between atoms: _22  and  _24
REMARK   13  A    between atoms: _24  and  _25
REMARK   14  A    between atoms: _27  and  _29
REMARK   15  A    between atoms: _29  and  _30
REMARK   16  A    between atoms: _29  and  _32
REMARK   17  A    between atoms: _32  and  _33
REMARK   18  A    between atoms: _33  and  _34
REMARK   19  A    between atoms: _39  and  _41
REMARK   20  A    between atoms: _41  and  _42
REMARK   21  A    between atoms: _44  and  _46
REMARK   22  A    between atoms: _46  and  _47
REMARK   23  A    between atoms: _46  and  _49
REMARK   24  A    between atoms: _49  and  _50
REMARK   25  A    between atoms: _55  and  _56
REMARK   26  A    between atoms: _58  and  _60
REMARK   27  A    between atoms: _60  and  _61
REMARK   28  A    between atoms: _60  and  _63
REMARK   29  A    between atoms: _63  and  _64
REMARK   30  A    between atoms: _67  and  _69
REMARK   31  A    between atoms: _69  and  _70
REMARK   32  A    between atoms: _69  and  _72
REMARK   33  A    between atoms: _75  and  _77
REMARK   34  A    between atoms: _77  and  _78
REMARK   35  A    between atoms: _77  and  _80
REMARK   36  A    between atoms: _80  and  _81
REMARK   37  A    between atoms: _84  and  _86
REMARK   38  A    between atoms: _86  and  _87
REMARK   39  A    between atoms: _86  and  _89
REMARK   40  A    between atoms: _89  and  _90
REMARK   41  A    between atoms: _93  and  _95
REMARK   42  A    between atoms: _95  and  _96
REMARK   43  A    between atoms: _98  and  _100
REMARK   44  A    between atoms: _100  and  _101
REMARK   45  A    between atoms: _100  and  _103
REMARK   46  A    between atoms: _103  and  _104
REMARK   47  A    between atoms: _106  and  _108
REMARK   48  A    between atoms: _108  and  _109
REMARK   49  A    between atoms: _108  and  _111
REMARK   50  A    between atoms: _111  and  _112
REMARK   51  A    between atoms: _114  and  _116
REMARK   52  A    between atoms: _116  and  _117
REMARK   53  A    between atoms: _116  and  _119
REMARK   54  A    between atoms: _119  and  _120
REMARK   55  A    between atoms: _125  and  _127
REMARK   56  A    between atoms: _127  and  _128
REMARK   57  A    between atoms: _127  and  _130
REMARK   58  A    between atoms: _130  and  _131
REMARK   59  A    between atoms: _136  and  _137
REMARK   60  A    between atoms: _139  and  _141
REMARK   61  A    between atoms: _141  and  _142
REMARK   62  A    between atoms: _141  and  _144
REMARK   63  A    between atoms: _148  and  _149
REMARK   64  A    between atoms: _154  and  _156
REMARK   65  A    between atoms: _156  and  _157
REMARK   66  A    between atoms: _156  and  _159
REMARK   67  A    between atoms: _159  and  _160
REMARK   68  A    between atoms: _165  and  _166
REMARK   69  A    between atoms: _168  and  _170
REMARK   70  A    between atoms: _170  and  _171
REMARK   71  A    between atoms: _170  and  _173
REMARK   72  A    between atoms: _173  and  _174
REMARK   73  A    between atoms: _177  and  _179
REMARK   74  A    between atoms: _179  and  _180
REMARK   75  A    between atoms: _179  and  _182
REMARK   76  A    between atoms: _182  and  _183
REMARK   77  A    between atoms: _183  and  _184
REMARK   78  A    between atoms: _189  and  _191
REMARK   79  A    between atoms: _191  and  _192
REMARK   80  A    between atoms: _194  and  _196
REMARK   81  A    between atoms: _196  and  _197
REMARK   82  A    between atoms: _196  and  _199
REMARK   83  A    between atoms: _199  and  _200
REMARK   84  A    between atoms: _200  and  _201
REMARK   85  A    between atoms: _201  and  _202
REMARK   86  A    between atoms: _202  and  _203
REMARK   87  A    between atoms: _207  and  _209
REMARK   88  A    between atoms: _209  and  _210
REMARK   89  A    between atoms: _209  and  _212
REMARK   90  A    between atoms: _212  and  _213
REMARK   91  A    between atoms: _223  and  _225
REMARK   92  A    between atoms: _225  and  _226
REMARK   93  A    between atoms: _225  and  _228
REMARK   94  A    between atoms: _228  and  _229
REMARK   95  A    between atoms: _232  and  _234
REMARK   96  A    between atoms: _234  and  _235
REMARK   97  A    between atoms: _234  and  _237
REMARK   98  A    between atoms: _237  and  _238
REMARK   99  A    between atoms: _238  and  _239
REMARK  100  A    between atoms: _239  and  _240
REMARK  101  A    between atoms: _240  and  _241
REMARK  102  A    between atoms: _245  and  _247
REMARK  103  A    between atoms: _247  and  _248
REMARK  104  A    between atoms: _247  and  _250
REMARK  105  A    between atoms: _250  and  _251
REMARK  106  A    between atoms: _257  and  _259
REMARK  107  A    between atoms: _259  and  _260
REMARK  108  A    between atoms: _259  and  _262
REMARK  109  A    between atoms: _262  and  _263
REMARK  110  A    between atoms: _269  and  _271
REMARK  111  A    between atoms: _271  and  _272
REMARK  112  A    between atoms: _271  and  _274
REMARK  113  A    between atoms: _274  and  _275
REMARK  114  A    between atoms: _278  and  _280
REMARK  115  A    between atoms: _280  and  _281
REMARK  116  A    between atoms: _280  and  _283
REMARK  117  A    between atoms: _283  and  _284
REMARK  118  A    between atoms: _286  and  _288
REMARK  119  A    between atoms: _288  and  _289
REMARK  120  A    between atoms: _288  and  _291
REMARK  121  A    between atoms: _291  and  _292
REMARK  122  A    between atoms: _302  and  _304
REMARK  123  A    between atoms: _304  and  _305
REMARK  124  A    between atoms: _307  and  _309
REMARK  125  A    between atoms: _309  and  _310
REMARK  126  A    between atoms: _309  and  _312
REMARK  127  A    between atoms: _312  and  _313
REMARK  128  A    between atoms: _316  and  _318
REMARK  129  A    between atoms: _318  and  _319
REMARK  130  A    between atoms: _318  and  _321
REMARK  131  A    between atoms: _321  and  _322
REMARK  132  A    between atoms: _325  and  _327
REMARK  133  A    between atoms: _327  and  _328
REMARK  134  A    between atoms: _330  and  _332
REMARK  135  A    between atoms: _332  and  _333
REMARK  136  A    between atoms: _332  and  _335
REMARK  137  A    between atoms: _335  and  _336
REMARK  138  A    between atoms: _339  and  _341
REMARK  139  A    between atoms: _341  and  _342
REMARK  140  A    between atoms: _345  and  _347
REMARK  141  A    between atoms: _347  and  _348
REMARK  142  A    between atoms: _347  and  _350
REMARK  143  A    between atoms: _350  and  _351
REMARK  144  A    between atoms: _356  and  _357
REMARK  145  A    between atoms: _359  and  _361
REMARK  146  A    between atoms: _361  and  _362
REMARK  147  A    between atoms: _361  and  _364
REMARK  148  A    between atoms: _364  and  _365
REMARK  149  A    between atoms: _365  and  _366
REMARK  150  A    between atoms: _369  and  _371
REMARK  151  A    between atoms: _371  and  _372
REMARK  152  A    between atoms: _371  and  _374
REMARK  153  A    between atoms: _374  and  _375
REMARK  154  A    between atoms: _378  and  _380
REMARK  155  A    between atoms: _380  and  _381
REMARK  156  A    between atoms: _384  and  _386
REMARK  157  A    between atoms: _386  and  _387
REMARK  158  A    between atoms: _386  and  _389
REMARK  159  A    between atoms: _389  and  _390
REMARK  160  A    between atoms: _390  and  _391
REMARK  161  A    between atoms: _391  and  _392
REMARK  162  A    between atoms: _401  and  _403
REMARK  163  A    between atoms: _403  and  _404
REMARK  164  A    between atoms: _403  and  _406
REMARK  165  A    between atoms: _406  and  _407
REMARK  166  A    between atoms: _417  and  _419
REMARK  167  A    between atoms: _419  and  _420
REMARK  168  A    between atoms: _419  and  _422
REMARK  169  A    between atoms: _422  and  _423
REMARK  170  A    between atoms: _428  and  _429
REMARK  171  A    between atoms: _431  and  _433
REMARK  172  A    between atoms: _433  and  _434
REMARK  173  A    between atoms: _433  and  _436
REMARK  174  A    between atoms: _436  and  _437
REMARK  175  A    between atoms: _442  and  _443
REMARK  176  A    between atoms: _445  and  _447
REMARK  177  A    between atoms: _447  and  _448
REMARK  178  A    between atoms: _447  and  _450
REMARK  179  A    between atoms: _450  and  _451
REMARK  180  A    between atoms: _451  and  _452
REMARK  181  A    between atoms: _452  and  _453
REMARK  182  A    between atoms: _453  and  _454
REMARK  183  A    between atoms: _458  and  _460
REMARK  184  A    between atoms: _460  and  _461
REMARK  185  A    between atoms: _460  and  _463
REMARK  186  A    between atoms: _463  and  _464
REMARK  187  A    between atoms: _467  and  _469
REMARK  188  A    between atoms: _469  and  _470
REMARK  189  A    between atoms: _469  and  _472
REMARK  190  A    between atoms: _475  and  _477
REMARK  191  A    between atoms: _477  and  _478
REMARK  192  A    between atoms: _477  and  _480
REMARK  193  A    between atoms: _480  and  _481
REMARK  194  A    between atoms: _484  and  _486
REMARK  195  A    between atoms: _486  and  _487
REMARK  196  A    between atoms: _486  and  _489
REMARK  197  A    between atoms: _489  and  _490
REMARK  198  A    between atoms: _492  and  _494
REMARK  199  A    between atoms: _494  and  _495
REMARK  200  A    between atoms: _497  and  _499
REMARK  201  A    between atoms: _499  and  _500
REMARK  202  A    between atoms: _499  and  _502
REMARK  203  A    between atoms: _502  and  _503
REMARK  204  A    between atoms: _506  and  _508
REMARK  205  A    between atoms: _508  and  _509
REMARK  206  A    between atoms: _508  and  _511
REMARK  207  A    between atoms: _511  and  _512
REMARK  208  A    between atoms: _515  and  _517
REMARK  209  A    between atoms: _517  and  _518
REMARK  210  A    between atoms: _517  and  _520
REMARK  211  A    between atoms: _520  and  _521
REMARK  212  A    between atoms: _526  and  _528
REMARK  213  A    between atoms: _528  and  _529
REMARK  214  A    between atoms: _528  and  _531
REMARK  215  A    between atoms: _531  and  _532
REMARK  216  A    between atoms: _532  and  _533
REMARK  217  A    between atoms: _533  and  _534
REMARK  218  A    between atoms: _543  and  _545
REMARK  219  A    between atoms: _545  and  _546
REMARK  220  A    between atoms: _545  and  _548
REMARK  221  A    between atoms: _548  and  _549
REMARK  222  A    between atoms: _549  and  _550
REMARK  223  A    between atoms: _550  and  _551
REMARK  224  A    between atoms: _560  and  _562
REMARK  225  A    between atoms: _562  and  _563
REMARK  226  A    between atoms: _562  and  _565
REMARK  227  A    between atoms: _565  and  _566
REMARK  228  A    between atoms: _568  and  _570
REMARK  229  A    between atoms: _570  and  _571
REMARK  230  A    between atoms: _570  and  _573
REMARK  231  A    between atoms: _573  and  _574
REMARK  232  A    between atoms: _574  and  _575
REMARK  233  A    between atoms: _580  and  _582
REMARK  234  A    between atoms: _582  and  _583
REMARK  235  A    between atoms: _582  and  _585
REMARK  236  A    between atoms: _585  and  _586
REMARK  237  A    between atoms: _589  and  _591
REMARK  238  A    between atoms: _591  and  _592
REMARK  239  A    between atoms: _591  and  _594
REMARK  240  A    between atoms: _594  and  _595
REMARK  241  A    between atoms: _598  and  _600
REMARK  242  A    between atoms: _600  and  _601
REMARK  243  A    between atoms: _600  and  _603
REMARK  244  A    between atoms: _606  and  _608
REMARK  245  A    between atoms: _608  and  _609
REMARK  246  A    between atoms: _611  and  _613
REMARK  247  A    between atoms: _613  and  _614
REMARK  248  A    between atoms: _617  and  _619
REMARK  249  A    between atoms: _619  and  _620
REMARK  250  A    between atoms: _619  and  _622
REMARK                            x       y       z     vdW  Elec       q    Type
REMARK                         _______ _______ _______ _____ _____    ______ ____
ROOT
ATOM      1  O   HOH     1      32.452  14.127  18.386  0.00  0.00    +0.000 OA
ENDROOT
TORSDOF 0
REMARK  Name = ../refined-set-2016/3lpi/3lpi_pocket.pdb
REMARK  250 active torsions:
REMARK  status: ('A' for Active; 'I' for Inactive)
REMARK    1  A    between atoms: _1  and  _3
REMARK    2  A    between atoms: _3  and  _4
REMARK    3  A    between atoms: _3  and  _6
REMARK    4  A    between atoms: _6  and  _7
REMARK    5  A    between atoms: _7  and  _8
REMARK    6  A    between atoms: _8  and  _9
REMARK    7  A    between atoms: _9  and  _10
REMARK    8  A    between atoms: _14  and  _16
REMARK    9  A    between atoms: _16  and  _17
REMARK   10  A    between atoms: _16  and  _19
REMARK   11  A    between atoms: _19  and  _20
REMARK   12  A    between atoms: _22  and  _24
REMARK   13  A    between atoms: _24  and  _25
REMARK   14  A    between atoms: _27  and  _29
REMARK   15  A    between atoms: _29  and  _30
REMARK   16  A    between atoms: _29  and  _32
REMARK   17  A    between atoms: _32  and  _33
REMARK   18  A    between atoms: _33  and  _34
REMARK   19  A    between atoms: _39  and  _41
REMARK   20  A    between atoms: _41  and  _42
REMARK   21  A    between atoms: _44  and  _46
REMARK   22  A    between atoms: _46  and  _47
REMARK   23  A    between atoms: _46  and  _49
REMARK   24  A    between atoms: _49  and  _50
REMARK   25  A    between atoms: _55  and  _56
REMARK   26  A    between atoms: _58  and  _60
REMARK   27  A    between atoms: _60  and  _61
REMARK   28  A    between atoms: _60  and  _63
REMARK   29  A    between atoms: _63  and  _64
REMARK   30  A    between atoms: _67  and  _69
REMARK   31  A    between atoms: _69  and  _70
REMARK   32  A    between atoms: _69  and  _72
REMARK   33  A    between atoms: _75  and  _77
REMARK   34  A    between atoms: _77  and  _78
REMARK   35  A    between atoms: _77  and  _80
REMARK   36  A    between atoms: _80  and  _81
REMARK   37  A    between atoms: _84  and  _86
REMARK   38  A    between atoms: _86  and  _87
REMARK   39  A    between atoms: _86  and  _89
REMARK   40  A    between atoms: _89  and  _90
REMARK   41  A    between atoms: _93  and  _95
REMARK   42  A    between atoms: _95  and  _96
REMARK   43  A    between atoms: _98  and  _100
REMARK   44  A    between atoms: _100  and  _101
REMARK   45  A    between atoms: _100  and  _103
REMARK   46  A    between atoms: _103  and  _104
REMARK   47  A    between atoms: _106  and  _108
REMARK   48  A    between atoms: _108  and  _109
REMARK   49  A    between atoms: _108  and  _111
REMARK   50  A    between atoms: _111  and  _112
REMARK   51  A    between atoms: _114  and  _116
REMARK   52  A    between atoms: _116  and  _117
REMARK   53  A    between atoms: _116  and  _119
REMARK   54  A    between atoms: _119  and  _120
REMARK   55  A    between atoms: _125  and  _127
REMARK   56  A    between atoms: _127  and  _128
REMARK   57  A    between atoms: _127  and  _130
REMARK   58  A    between atoms: _130  and  _131
REMARK   59  A    between atoms: _136  and  _137
REMARK   60  A    between atoms: _139  and  _141
REMARK   61  A    between atoms: _141  and  _142
REMARK   62  A    between atoms: _141  and  _144
REMARK   63  A    between atoms: _148  and  _149
REMARK   64  A    between atoms: _154  and  _156
REMARK   65  A    between atoms: _156  and  _157
REMARK   66  A    between atoms: _156  and  _159
REMARK   67  A    between atoms: _159  and  _160
REMARK   68  A    between atoms: _165  and  _166
REMARK   69  A    between atoms: _168  and  _170
REMARK   70  A    between atoms: _170  and  _171
REMARK   71  A    between atoms: _170  and  _173
REMARK   72  A    between atoms: _173  and  _174
REMARK   73  A    between atoms: _177  and  _179
REMARK   74  A    between atoms: _179  and  _180
REMARK   75  A    between atoms: _179  and  _182
REMARK   76  A    between atoms: _182  and  _183
REMARK   77  A    between atoms: _183  and  _184
REMARK   78  A    between atoms: _189  and  _191
REMARK   79  A    between atoms: _191  and  _192
REMARK   80  A    between atoms: _194  and  _196
REMARK   81  A    between atoms: _196  and  _197
REMARK   82  A    between atoms: _196  and  _199
REMARK   83  A    between atoms: _199  and  _200
REMARK   84  A    between atoms: _200  and  _201
REMARK   85  A    between atoms: _201  and  _202
REMARK   86  A    between atoms: _202  and  _203
REMARK   87  A    between atoms: _207  and  _209
REMARK   88  A    between atoms: _209  and  _210
REMARK   89  A    between atoms: _209  and  _212
REMARK   90  A    between atoms: _212  and  _213
REMARK   91  A    between atoms: _223  and  _225
REMARK   92  A    between atoms: _225  and  _226
REMARK   93  A    between atoms: _225  and  _228
REMARK   94  A    between atoms: _228  and  _229
REMARK   95  A    between atoms: _232  and  _234
REMARK   96  A    between atoms: _234  and  _235
REMARK   97  A    between atoms: _234  and  _237
REMARK   98  A    between atoms: _237  and  _238
REMARK   99  A    between atoms: _238  and  _239
REMARK  100  A    between atoms: _239  and  _240
REMARK  101  A    between atoms: _240  and  _241
REMARK  102  A    between atoms: _245  and  _247
REMARK  103  A    between atoms: _247  and  _248
REMARK  104  A    between atoms: _247  and  _250
REMARK  105  A    between atoms: _250  and  _251
REMARK  106  A    between atoms: _257  and  _259
REMARK  107  A    between atoms: _259  and  _260
REMARK  108  A    between atoms: _259  and  _262
REMARK  109  A    between atoms: _262  and  _263
REMARK  110  A    between atoms: _269  and  _271
REMARK  111  A    between atoms: _271  and  _272
REMARK  112  A    between atoms: _271  and  _274
REMARK  113  A    between atoms: _274  and  _275
REMARK  114  A    between atoms: _278  and  _280
REMARK  115  A    between atoms: _280  and  _281
REMARK  116  A    between atoms: _280  and  _283
REMARK  117  A    between atoms: _283  and  _284
REMARK  118  A    between atoms: _286  and  _288
REMARK  119  A    between atoms: _288  and  _289
REMARK  120  A    between atoms: _288  and  _291
REMARK  121  A    between atoms: _291  and  _292
REMARK  122  A    between atoms: _302  and  _304
REMARK  123  A    between atoms: _304  and  _305
REMARK  124  A    between atoms: _307  and  _309
REMARK  125  A    between atoms: _309  and  _310
REMARK  126  A    between atoms: _309  and  _312
REMARK  127  A    between atoms: _312  and  _313
REMARK  128  A    between atoms: _316  and  _318
REMARK  129  A    between atoms: _318  and  _319
REMARK  130  A    between atoms: _318  and  _321
REMARK  131  A    between atoms: _321  and  _322
REMARK  132  A    between atoms: _325  and  _327
REMARK  133  A    between atoms: _327  and  _328
REMARK  134  A    between atoms: _330  and  _332
REMARK  135  A    between atoms: _332  and  _333
REMARK  136  A    between atoms: _332  and  _335
REMARK  137  A    between atoms: _335  and  _336
REMARK  138  A    between atoms: _339  and  _341
REMARK  139  A    between atoms: _341  and  _342
REMARK  140  A    between atoms: _345  and  _347
REMARK  141  A    between atoms: _347  and  _348
REMARK  142  A    between atoms: _347  and  _350
REMARK  143  A    between atoms: _350  and  _351
REMARK  144  A    between atoms: _356  and  _357
REMARK  145  A    between atoms: _359  and  _361
REMARK  146  A    between atoms: _361  and  _362
REMARK  147  A    between atoms: _361  and  _364
REMARK  148  A    between atoms: _364  and  _365
REMARK  149  A    between atoms: _365  and  _366
REMARK  150  A    between atoms: _369  and  _371
REMARK  151  A    between atoms: _371  and  _372
REMARK  152  A    between atoms: _371  and  _374
REMARK  153  A    between atoms: _374  and  _375
REMARK  154  A    between atoms: _378  and  _380
REMARK  155  A    between atoms: _380  and  _381
REMARK  156  A    between atoms: _384  and  _386
REMARK  157  A    between atoms: _386  and  _387
REMARK  158  A    between atoms: _386  and  _389
REMARK  159  A    between atoms: _389  and  _390
REMARK  160  A    between atoms: _390  and  _391
REMARK  161  A    between atoms: _391  and  _392
REMARK  162  A    between atoms: _401  and  _403
REMARK  163  A    between atoms: _403  and  _404
REMARK  164  A    between atoms: _403  and  _406
REMARK  165  A    between atoms: _406  and  _407
REMARK  166  A    between atoms: _417  and  _419
REMARK  167  A    between atoms: _419  and  _420
REMARK  168  A    between atoms: _419  and  _422
REMARK  169  A    between atoms: _422  and  _423
REMARK  170  A    between atoms: _428  and  _429
REMARK  171  A    between atoms: _431  and  _433
REMARK  172  A    between atoms: _433  and  _434
REMARK  173  A    between atoms: _433  and  _436
REMARK  174  A    between atoms: _436  and  _437
REMARK  175  A    between atoms: _442  and  _443
REMARK  176  A    between atoms: _445  and  _447
REMARK  177  A    between atoms: _447  and  _448
REMARK  178  A    between atoms: _447  and  _450
REMARK  179  A    between atoms: _450  and  _451
REMARK  180  A    between atoms: _451  and  _452
REMARK  181  A    between atoms: _452  and  _453
REMARK  182  A    between atoms: _453  and  _454
REMARK  183  A    between atoms: _458  and  _460
REMARK  184  A    between atoms: _460  and  _461
REMARK  185  A    between atoms: _460  and  _463
REMARK  186  A    between atoms: _463  and  _464
REMARK  187  A    between atoms: _467  and  _469
REMARK  188  A    between atoms: _469  and  _470
REMARK  189  A    between atoms: _469  and  _472
REMARK  190  A    between atoms: _475  and  _477
REMARK  191  A    between atoms: _477  and  _478
REMARK  192  A    between atoms: _477  and  _480
REMARK  193  A    between atoms: _480  and  _481
REMARK  194  A    between atoms: _484  and  _486
REMARK  195  A    between atoms: _486  and  _487
REMARK  196  A    between atoms: _486  and  _489
REMARK  197  A    between atoms: _489  and  _490
REMARK  198  A    between atoms: _492  and  _494
REMARK  199  A    between atoms: _494  and  _495
REMARK  200  A    between atoms: _497  and  _499
REMARK  201  A    between atoms: _499  and  _500
REMARK  202  A    between atoms: _499  and  _502
REMARK  203  A    between atoms: _502  and  _503
REMARK  204  A    between atoms: _506  and  _508
REMARK  205  A    between atoms: _508  and  _509
REMARK  206  A    between atoms: _508  and  _511
REMARK  207  A    between atoms: _511  and  _512
REMARK  208  A    between atoms: _515  and  _517
REMARK  209  A    between atoms: _517  and  _518
REMARK  210  A    between atoms: _517  and  _520
REMARK  211  A    between atoms: _520  and  _521
REMARK  212  A    between atoms: _526  and  _528
REMARK  213  A    between atoms: _528  and  _529
REMARK  214  A    between atoms: _528  and  _531
REMARK  215  A    between atoms: _531  and  _532
REMARK  216  A    between atoms: _532  and  _533
REMARK  217  A    between atoms: _533  and  _534
REMARK  218  A    between atoms: _543  and  _545
REMARK  219  A    between atoms: _545  and  _546
REMARK  220  A    between atoms: _545  and  _548
REMARK  221  A    between atoms: _548  and  _549
REMARK  222  A    between atoms: _549  and  _550
REMARK  223  A    between atoms: _550  and  _551
REMARK  224  A    between atoms: _560  and  _562
REMARK  225  A    between atoms: _562  and  _563
REMARK  226  A    between atoms: _562  and  _565
REMARK  227  A    between atoms: _565  and  _566
REMARK  228  A    between atoms: _568  and  _570
REMARK  229  A    between atoms: _570  and  _571
REMARK  230  A    between atoms: _570  and  _573
REMARK  231  A    between atoms: _573  and  _574
REMARK  232  A    between atoms: _574  and  _575
REMARK  233  A    between atoms: _580  and  _582
REMARK  234  A    between atoms: _582  and  _583
REMARK  235  A    between atoms: _582  and  _585
REMARK  236  A    between atoms: _585  and  _586
REMARK  237  A    between atoms: _589  and  _591
REMARK  238  A    between atoms: _591  and  _592
REMARK  239  A    between atoms: _591  and  _594
REMARK  240  A    between atoms: _594  and  _595
REMARK  241  A    between atoms: _598  and  _600
REMARK  242  A    between atoms: _600  and  _601
REMARK  243  A    between atoms: _600  and  _603
REMARK  244  A    between atoms: _606  and  _608
REMARK  245  A    between atoms: _608  and  _609
REMARK  246  A    between atoms: _611  and  _613
REMARK  247  A    between atoms: _613  and  _614
REMARK  248  A    between atoms: _617  and  _619
REMARK  249  A    between atoms: _619  and  _620
REMARK  250  A    between atoms: _619  and  _622
REMARK                            x       y       z     vdW  Elec       q    Type
REMARK                         _______ _______ _______ _____ _____    ______ ____
ROOT
ATOM      1  O   HOH     1      30.938  16.287  17.357  0.00  0.00    +0.000 OA
ENDROOT
TORSDOF 0
REMARK  Name = ../refined-set-2016/3lpi/3lpi_pocket.pdb
REMARK  250 active torsions:
REMARK  status: ('A' for Active; 'I' for Inactive)
REMARK    1  A    between atoms: _1  and  _3
REMARK    2  A    between atoms: _3  and  _4
REMARK    3  A    between atoms: _3  and  _6
REMARK    4  A    between atoms: _6  and  _7
REMARK    5  A    between atoms: _7  and  _8
REMARK    6  A    between atoms: _8  and  _9
REMARK    7  A    between atoms: _9  and  _10
REMARK    8  A    between atoms: _14  and  _16
REMARK    9  A    between atoms: _16  and  _17
REMARK   10  A    between atoms: _16  and  _19
REMARK   11  A    between atoms: _19  and  _20
REMARK   12  A    between atoms: _22  and  _24
REMARK   13  A    between atoms: _24  and  _25
REMARK   14  A    between atoms: _27  and  _29
REMARK   15  A    between atoms: _29  and  _30
REMARK   16  A    between atoms: _29  and  _32
REMARK   17  A    between atoms: _32  and  _33
REMARK   18  A    between atoms: _33  and  _34
REMARK   19  A    between atoms: _39  and  _41
REMARK   20  A    between atoms: _41  and  _42
REMARK   21  A    between atoms: _44  and  _46
REMARK   22  A    between atoms: _46  and  _47
REMARK   23  A    between atoms: _46  and  _49
REMARK   24  A    between atoms: _49  and  _50
REMARK   25  A    between atoms: _55  and  _56
REMARK   26  A    between atoms: _58  and  _60
REMARK   27  A    between atoms: _60  and  _61
REMARK   28  A    between atoms: _60  and  _63
REMARK   29  A    between atoms: _63  and  _64
REMARK   30  A    between atoms: _67  and  _69
REMARK   31  A    between atoms: _69  and  _70
REMARK   32  A    between atoms: _69  and  _72
REMARK   33  A    between atoms: _75  and  _77
REMARK   34  A    between atoms: _77  and  _78
REMARK   35  A    between atoms: _77  and  _80
REMARK   36  A    between atoms: _80  and  _81
REMARK   37  A    between atoms: _84  and  _86
REMARK   38  A    between atoms: _86  and  _87
REMARK   39  A    between atoms: _86  and  _89
REMARK   40  A    between atoms: _89  and  _90
REMARK   41  A    between atoms: _93  and  _95
REMARK   42  A    between atoms: _95  and  _96
REMARK   43  A    between atoms: _98  and  _100
REMARK   44  A    between atoms: _100  and  _101
REMARK   45  A    between atoms: _100  and  _103
REMARK   46  A    between atoms: _103  and  _104
REMARK   47  A    between atoms: _106  and  _108
REMARK   48  A    between atoms: _108  and  _109
REMARK   49  A    between atoms: _108  and  _111
REMARK   50  A    between atoms: _111  and  _112
REMARK   51  A    between atoms: _114  and  _116
REMARK   52  A    between atoms: _116  and  _117
REMARK   53  A    between atoms: _116  and  _119
REMARK   54  A    between atoms: _119  and  _120
REMARK   55  A    between atoms: _125  and  _127
REMARK   56  A    between atoms: _127  and  _128
REMARK   57  A    between atoms: _127  and  _130
REMARK   58  A    between atoms: _130  and  _131
REMARK   59  A    between atoms: _136  and  _137
REMARK   60  A    between atoms: _139  and  _141
REMARK   61  A    between atoms: _141  and  _142
REMARK   62  A    between atoms: _141  and  _144
REMARK   63  A    between atoms: _148  and  _149
REMARK   64  A    between atoms: _154  and  _156
REMARK   65  A    between atoms: _156  and  _157
REMARK   66  A    between atoms: _156  and  _159
REMARK   67  A    between atoms: _159  and  _160
REMARK   68  A    between atoms: _165  and  _166
REMARK   69  A    between atoms: _168  and  _170
REMARK   70  A    between atoms: _170  and  _171
REMARK   71  A    between atoms: _170  and  _173
REMARK   72  A    between atoms: _173  and  _174
REMARK   73  A    between atoms: _177  and  _179
REMARK   74  A    between atoms: _179  and  _180
REMARK   75  A    between atoms: _179  and  _182
REMARK   76  A    between atoms: _182  and  _183
REMARK   77  A    between atoms: _183  and  _184
REMARK   78  A    between atoms: _189  and  _191
REMARK   79  A    between atoms: _191  and  _192
REMARK   80  A    between atoms: _194  and  _196
REMARK   81  A    between atoms: _196  and  _197
REMARK   82  A    between atoms: _196  and  _199
REMARK   83  A    between atoms: _199  and  _200
REMARK   84  A    between atoms: _200  and  _201
REMARK   85  A    between atoms: _201  and  _202
REMARK   86  A    between atoms: _202  and  _203
REMARK   87  A    between atoms: _207  and  _209
REMARK   88  A    between atoms: _209  and  _210
REMARK   89  A    between atoms: _209  and  _212
REMARK   90  A    between atoms: _212  and  _213
REMARK   91  A    between atoms: _223  and  _225
REMARK   92  A    between atoms: _225  and  _226
REMARK   93  A    between atoms: _225  and  _228
REMARK   94  A    between atoms: _228  and  _229
REMARK   95  A    between atoms: _232  and  _234
REMARK   96  A    between atoms: _234  and  _235
REMARK   97  A    between atoms: _234  and  _237
REMARK   98  A    between atoms: _237  and  _238
REMARK   99  A    between atoms: _238  and  _239
REMARK  100  A    between atoms: _239  and  _240
REMARK  101  A    between atoms: _240  and  _241
REMARK  102  A    between atoms: _245  and  _247
REMARK  103  A    between atoms: _247  and  _248
REMARK  104  A    between atoms: _247  and  _250
REMARK  105  A    between atoms: _250  and  _251
REMARK  106  A    between atoms: _257  and  _259
REMARK  107  A    between atoms: _259  and  _260
REMARK  108  A    between atoms: _259  and  _262
REMARK  109  A    between atoms: _262  and  _263
REMARK  110  A    between atoms: _269  and  _271
REMARK  111  A    between atoms: _271  and  _272
REMARK  112  A    between atoms: _271  and  _274
REMARK  113  A    between atoms: _274  and  _275
REMARK  114  A    between atoms: _278  and  _280
REMARK  115  A    between atoms: _280  and  _281
REMARK  116  A    between atoms: _280  and  _283
REMARK  117  A    between atoms: _283  and  _284
REMARK  118  A    between atoms: _286  and  _288
REMARK  119  A    between atoms: _288  and  _289
REMARK  120  A    between atoms: _288  and  _291
REMARK  121  A    between atoms: _291  and  _292
REMARK  122  A    between atoms: _302  and  _304
REMARK  123  A    between atoms: _304  and  _305
REMARK  124  A    between atoms: _307  and  _309
REMARK  125  A    between atoms: _309  and  _310
REMARK  126  A    between atoms: _309  and  _312
REMARK  127  A    between atoms: _312  and  _313
REMARK  128  A    between atoms: _316  and  _318
REMARK  129  A    between atoms: _318  and  _319
REMARK  130  A    between atoms: _318  and  _321
REMARK  131  A    between atoms: _321  and  _322
REMARK  132  A    between atoms: _325  and  _327
REMARK  133  A    between atoms: _327  and  _328
REMARK  134  A    between atoms: _330  and  _332
REMARK  135  A    between atoms: _332  and  _333
REMARK  136  A    between atoms: _332  and  _335
REMARK  137  A    between atoms: _335  and  _336
REMARK  138  A    between atoms: _339  and  _341
REMARK  139  A    between atoms: _341  and  _342
REMARK  140  A    between atoms: _345  and  _347
REMARK  141  A    between atoms: _347  and  _348
REMARK  142  A    between atoms: _347  and  _350
REMARK  143  A    between atoms: _350  and  _351
REMARK  144  A    between atoms: _356  and  _357
REMARK  145  A    between atoms: _359  and  _361
REMARK  146  A    between atoms: _361  and  _362
REMARK  147  A    between atoms: _361  and  _364
REMARK  148  A    between atoms: _364  and  _365
REMARK  149  A    between atoms: _365  and  _366
REMARK  150  A    between atoms: _369  and  _371
REMARK  151  A    between atoms: _371  and  _372
REMARK  152  A    between atoms: _371  and  _374
REMARK  153  A    between atoms: _374  and  _375
REMARK  154  A    between atoms: _378  and  _380
REMARK  155  A    between atoms: _380  and  _381
REMARK  156  A    between atoms: _384  and  _386
REMARK  157  A    between atoms: _386  and  _387
REMARK  158  A    between atoms: _386  and  _389
REMARK  159  A    between atoms: _389  and  _390
REMARK  160  A    between atoms: _390  and  _391
REMARK  161  A    between atoms: _391  and  _392
REMARK  162  A    between atoms: _401  and  _403
REMARK  163  A    between atoms: _403  and  _404
REMARK  164  A    between atoms: _403  and  _406
REMARK  165  A    between atoms: _406  and  _407
REMARK  166  A    between atoms: _417  and  _419
REMARK  167  A    between atoms: _419  and  _420
REMARK  168  A    between atoms: _419  and  _422
REMARK  169  A    between atoms: _422  and  _423
REMARK  170  A    between atoms: _428  and  _429
REMARK  171  A    between atoms: _431  and  _433
REMARK  172  A    between atoms: _433  and  _434
REMARK  173  A    between atoms: _433  and  _436
REMARK  174  A    between atoms: _436  and  _437
REMARK  175  A    between atoms: _442  and  _443
REMARK  176  A    between atoms: _445  and  _447
REMARK  177  A    between atoms: _447  and  _448
REMARK  178  A    between atoms: _447  and  _450
REMARK  179  A    between atoms: _450  and  _451
REMARK  180  A    between atoms: _451  and  _452
REMARK  181  A    between atoms: _452  and  _453
REMARK  182  A    between atoms: _453  and  _454
REMARK  183  A    between atoms: _458  and  _460
REMARK  184  A    between atoms: _460  and  _461
REMARK  185  A    between atoms: _460  and  _463
REMARK  186  A    between atoms: _463  and  _464
REMARK  187  A    between atoms: _467  and  _469
REMARK  188  A    between atoms: _469  and  _470
REMARK  189  A    between atoms: _469  and  _472
REMARK  190  A    between atoms: _475  and  _477
REMARK  191  A    between atoms: _477  and  _478
REMARK  192  A    between atoms: _477  and  _480
REMARK  193  A    between atoms: _480  and  _481
REMARK  194  A    between atoms: _484  and  _486
REMARK  195  A    between atoms: _486  and  _487
REMARK  196  A    between atoms: _486  and  _489
REMARK  197  A    between atoms: _489  and  _490
REMARK  198  A    between atoms: _492  and  _494
REMARK  199  A    between atoms: _494  and  _495
REMARK  200  A    between atoms: _497  and  _499
REMARK  201  A    between atoms: _499  and  _500
REMARK  202  A    between atoms: _499  and  _502
REMARK  203  A    between atoms: _502  and  _503
REMARK  204  A    between atoms: _506  and  _508
REMARK  205  A    between atoms: _508  and  _509
REMARK  206  A    between atoms: _508  and  _511
REMARK  207  A    between atoms: _511  and  _512
REMARK  208  A    between atoms: _515  and  _517
REMARK  209  A    between atoms: _517  and  _518
REMARK  210  A    between atoms: _517  and  _520
REMARK  211  A    between atoms: _520  and  _521
REMARK  212  A    between atoms: _526  and  _528
REMARK  213  A    between atoms: _528  and  _529
REMARK  214  A    between atoms: _528  and  _531
REMARK  215  A    between atoms: _531  and  _532
REMARK  216  A    between atoms: _532  and  _533
REMARK  217  A    between atoms: _533  and  _534
REMARK  218  A    between atoms: _543  and  _545
REMARK  219  A    between atoms: _545  and  _546
REMARK  220  A    between atoms: _545  and  _548
REMARK  221  A    between atoms: _548  and  _549
REMARK  222  A    between atoms: _549  and  _550
REMARK  223  A    between atoms: _550  and  _551
REMARK  224  A    between atoms: _560  and  _562
REMARK  225  A    between atoms: _562  and  _563
REMARK  226  A    between atoms: _562  and  _565
REMARK  227  A    between atoms: _565  and  _566
REMARK  228  A    between atoms: _568  and  _570
REMARK  229  A    between atoms: _570  and  _571
REMARK  230  A    between atoms: _570  and  _573
REMARK  231  A    between atoms: _573  and  _574
REMARK  232  A    between atoms: _574  and  _575
REMARK  233  A    between atoms: _580  and  _582
REMARK  234  A    between atoms: _582  and  _583
REMARK  235  A    between atoms: _582  and  _585
REMARK  236  A    between atoms: _585  and  _586
REMARK  237  A    between atoms: _589  and  _591
REMARK  238  A    between atoms: _591  and  _592
REMARK  239  A    between atoms: _591  and  _594
REMARK  240  A    between atoms: _594  and  _595
REMARK  241  A    between atoms: _598  and  _600
REMARK  242  A    between atoms: _600  and  _601
REMARK  243  A    between atoms: _600  and  _603
REMARK  244  A    between atoms: _606  and  _608
REMARK  245  A    between atoms: _608  and  _609
REMARK  246  A    between atoms: _611  and  _613
REMARK  247  A    between atoms: _613  and  _614
REMARK  248  A    between atoms: _617  and  _619
REMARK  249  A    between atoms: _619  and  _620
REMARK  250  A    between atoms: _619  and  _622
REMARK                            x       y       z     vdW  Elec       q    Type
REMARK                         _______ _______ _______ _____ _____    ______ ____
ROOT
ATOM      1  O   HOH     1      28.376  16.577  13.594  0.00  0.00    +0.000 OA
ENDROOT
TORSDOF 0
REMARK  Name = ../refined-set-2016/3lpi/3lpi_pocket.pdb
REMARK  250 active torsions:
REMARK  status: ('A' for Active; 'I' for Inactive)
REMARK    1  A    between atoms: _1  and  _3
REMARK    2  A    between atoms: _3  and  _4
REMARK    3  A    between atoms: _3  and  _6
REMARK    4  A    between atoms: _6  and  _7
REMARK    5  A    between atoms: _7  and  _8
REMARK    6  A    between atoms: _8  and  _9
REMARK    7  A    between atoms: _9  and  _10
REMARK    8  A    between atoms: _14  and  _16
REMARK    9  A    between atoms: _16  and  _17
REMARK   10  A    between atoms: _16  and  _19
REMARK   11  A    between atoms: _19  and  _20
REMARK   12  A    between atoms: _22  and  _24
REMARK   13  A    between atoms: _24  and  _25
REMARK   14  A    between atoms: _27  and  _29
REMARK   15  A    between atoms: _29  and  _30
REMARK   16  A    between atoms: _29  and  _32
REMARK   17  A    between atoms: _32  and  _33
REMARK   18  A    between atoms: _33  and  _34
REMARK   19  A    between atoms: _39  and  _41
REMARK   20  A    between atoms: _41  and  _42
REMARK   21  A    between atoms: _44  and  _46
REMARK   22  A    between atoms: _46  and  _47
REMARK   23  A    between atoms: _46  and  _49
REMARK   24  A    between atoms: _49  and  _50
REMARK   25  A    between atoms: _55  and  _56
REMARK   26  A    between atoms: _58  and  _60
REMARK   27  A    between atoms: _60  and  _61
REMARK   28  A    between atoms: _60  and  _63
REMARK   29  A    between atoms: _63  and  _64
REMARK   30  A    between atoms: _67  and  _69
REMARK   31  A    between atoms: _69  and  _70
REMARK   32  A    between atoms: _69  and  _72
REMARK   33  A    between atoms: _75  and  _77
REMARK   34  A    between atoms: _77  and  _78
REMARK   35  A    between atoms: _77  and  _80
REMARK   36  A    between atoms: _80  and  _81
REMARK   37  A    between atoms: _84  and  _86
REMARK   38  A    between atoms: _86  and  _87
REMARK   39  A    between atoms: _86  and  _89
REMARK   40  A    between atoms: _89  and  _90
REMARK   41  A    between atoms: _93  and  _95
REMARK   42  A    between atoms: _95  and  _96
REMARK   43  A    between atoms: _98  and  _100
REMARK   44  A    between atoms: _100  and  _101
REMARK   45  A    between atoms: _100  and  _103
REMARK   46  A    between atoms: _103  and  _104
REMARK   47  A    between atoms: _106  and  _108
REMARK   48  A    between atoms: _108  and  _109
REMARK   49  A    between atoms: _108  and  _111
REMARK   50  A    between atoms: _111  and  _112
REMARK   51  A    between atoms: _114  and  _116
REMARK   52  A    between atoms: _116  and  _117
REMARK   53  A    between atoms: _116  and  _119
REMARK   54  A    between atoms: _119  and  _120
REMARK   55  A    between atoms: _125  and  _127
REMARK   56  A    between atoms: _127  and  _128
REMARK   57  A    between atoms: _127  and  _130
REMARK   58  A    between atoms: _130  and  _131
REMARK   59  A    between atoms: _136  and  _137
REMARK   60  A    between atoms: _139  and  _141
REMARK   61  A    between atoms: _141  and  _142
REMARK   62  A    between atoms: _141  and  _144
REMARK   63  A    between atoms: _148  and  _149
REMARK   64  A    between atoms: _154  and  _156
REMARK   65  A    between atoms: _156  and  _157
REMARK   66  A    between atoms: _156  and  _159
REMARK   67  A    between atoms: _159  and  _160
REMARK   68  A    between atoms: _165  and  _166
REMARK   69  A    between atoms: _168  and  _170
REMARK   70  A    between atoms: _170  and  _171
REMARK   71  A    between atoms: _170  and  _173
REMARK   72  A    between atoms: _173  and  _174
REMARK   73  A    between atoms: _177  and  _179
REMARK   74  A    between atoms: _179  and  _180
REMARK   75  A    between atoms: _179  and  _182
REMARK   76  A    between atoms: _182  and  _183
REMARK   77  A    between atoms: _183  and  _184
REMARK   78  A    between atoms: _189  and  _191
REMARK   79  A    between atoms: _191  and  _192
REMARK   80  A    between atoms: _194  and  _196
REMARK   81  A    between atoms: _196  and  _197
REMARK   82  A    between atoms: _196  and  _199
REMARK   83  A    between atoms: _199  and  _200
REMARK   84  A    between atoms: _200  and  _201
REMARK   85  A    between atoms: _201  and  _202
REMARK   86  A    between atoms: _202  and  _203
REMARK   87  A    between atoms: _207  and  _209
REMARK   88  A    between atoms: _209  and  _210
REMARK   89  A    between atoms: _209  and  _212
REMARK   90  A    between atoms: _212  and  _213
REMARK   91  A    between atoms: _223  and  _225
REMARK   92  A    between atoms: _225  and  _226
REMARK   93  A    between atoms: _225  and  _228
REMARK   94  A    between atoms: _228  and  _229
REMARK   95  A    between atoms: _232  and  _234
REMARK   96  A    between atoms: _234  and  _235
REMARK   97  A    between atoms: _234  and  _237
REMARK   98  A    between atoms: _237  and  _238
REMARK   99  A    between atoms: _238  and  _239
REMARK  100  A    between atoms: _239  and  _240
REMARK  101  A    between atoms: _240  and  _241
REMARK  102  A    between atoms: _245  and  _247
REMARK  103  A    between atoms: _247  and  _248
REMARK  104  A    between atoms: _247  and  _250
REMARK  105  A    between atoms: _250  and  _251
REMARK  106  A    between atoms: _257  and  _259
REMARK  107  A    between atoms: _259  and  _260
REMARK  108  A    between atoms: _259  and  _262
REMARK  109  A    between atoms: _262  and  _263
REMARK  110  A    between atoms: _269  and  _271
REMARK  111  A    between atoms: _271  and  _272
REMARK  112  A    between atoms: _271  and  _274
REMARK  113  A    between atoms: _274  and  _275
REMARK  114  A    between atoms: _278  and  _280
REMARK  115  A    between atoms: _280  and  _281
REMARK  116  A    between atoms: _280  and  _283
REMARK  117  A    between atoms: _283  and  _284
REMARK  118  A    between atoms: _286  and  _288
REMARK  119  A    between atoms: _288  and  _289
REMARK  120  A    between atoms: _288  and  _291
REMARK  121  A    between atoms: _291  and  _292
REMARK  122  A    between atoms: _302  and  _304
REMARK  123  A    between atoms: _304  and  _305
REMARK  124  A    between atoms: _307  and  _309
REMARK  125  A    between atoms: _309  and  _310
REMARK  126  A    between atoms: _309  and  _312
REMARK  127  A    between atoms: _312  and  _313
REMARK  128  A    between atoms: _316  and  _318
REMARK  129  A    between atoms: _318  and  _319
REMARK  130  A    between atoms: _318  and  _321
REMARK  131  A    between atoms: _321  and  _322
REMARK  132  A    between atoms: _325  and  _327
REMARK  133  A    between atoms: _327  and  _328
REMARK  134  A    between atoms: _330  and  _332
REMARK  135  A    between atoms: _332  and  _333
REMARK  136  A    between atoms: _332  and  _335
REMARK  137  A    between atoms: _335  and  _336
REMARK  138  A    between atoms: _339  and  _341
REMARK  139  A    between atoms: _341  and  _342
REMARK  140  A    between atoms: _345  and  _347
REMARK  141  A    between atoms: _347  and  _348
REMARK  142  A    between atoms: _347  and  _350
REMARK  143  A    between atoms: _350  and  _351
REMARK  144  A    between atoms: _356  and  _357
REMARK  145  A    between atoms: _359  and  _361
REMARK  146  A    between atoms: _361  and  _362
REMARK  147  A    between atoms: _361  and  _364
REMARK  148  A    between atoms: _364  and  _365
REMARK  149  A    between atoms: _365  and  _366
REMARK  150  A    between atoms: _369  and  _371
REMARK  151  A    between atoms: _371  and  _372
REMARK  152  A    between atoms: _371  and  _374
REMARK  153  A    between atoms: _374  and  _375
REMARK  154  A    between atoms: _378  and  _380
REMARK  155  A    between atoms: _380  and  _381
REMARK  156  A    between atoms: _384  and  _386
REMARK  157  A    between atoms: _386  and  _387
REMARK  158  A    between atoms: _386  and  _389
REMARK  159  A    between atoms: _389  and  _390
REMARK  160  A    between atoms: _390  and  _391
REMARK  161  A    between atoms: _391  and  _392
REMARK  162  A    between atoms: _401  and  _403
REMARK  163  A    between atoms: _403  and  _404
REMARK  164  A    between atoms: _403  and  _406
REMARK  165  A    between atoms: _406  and  _407
REMARK  166  A    between atoms: _417  and  _419
REMARK  167  A    between atoms: _419  and  _420
REMARK  168  A    between atoms: _419  and  _422
REMARK  169  A    between atoms: _422  and  _423
REMARK  170  A    between atoms: _428  and  _429
REMARK  171  A    between atoms: _431  and  _433
REMARK  172  A    between atoms: _433  and  _434
REMARK  173  A    between atoms: _433  and  _436
REMARK  174  A    between atoms: _436  and  _437
REMARK  175  A    between atoms: _442  and  _443
REMARK  176  A    between atoms: _445  and  _447
REMARK  177  A    between atoms: _447  and  _448
REMARK  178  A    between atoms: _447  and  _450
REMARK  179  A    between atoms: _450  and  _451
REMARK  180  A    between atoms: _451  and  _452
REMARK  181  A    between atoms: _452  and  _453
REMARK  182  A    between atoms: _453  and  _454
REMARK  183  A    between atoms: _458  and  _460
REMARK  184  A    between atoms: _460  and  _461
REMARK  185  A    between atoms: _460  and  _463
REMARK  186  A    between atoms: _463  and  _464
REMARK  187  A    between atoms: _467  and  _469
REMARK  188  A    between atoms: _469  and  _470
REMARK  189  A    between atoms: _469  and  _472
REMARK  190  A    between atoms: _475  and  _477
REMARK  191  A    between atoms: _477  and  _478
REMARK  192  A    between atoms: _477  and  _480
REMARK  193  A    between atoms: _480  and  _481
REMARK  194  A    between atoms: _484  and  _486
REMARK  195  A    between atoms: _486  and  _487
REMARK  196  A    between atoms: _486  and  _489
REMARK  197  A    between atoms: _489  and  _490
REMARK  198  A    between atoms: _492  and  _494
REMARK  199  A    between atoms: _494  and  _495
REMARK  200  A    between atoms: _497  and  _499
REMARK  201  A    between atoms: _499  and  _500
REMARK  202  A    between atoms: _499  and  _502
REMARK  203  A    between atoms: _502  and  _503
REMARK  204  A    between atoms: _506  and  _508
REMARK  205  A    between atoms: _508  and  _509
REMARK  206  A    between atoms: _508  and  _511
REMARK  207  A    between atoms: _511  and  _512
REMARK  208  A    between atoms: _515  and  _517
REMARK  209  A    between atoms: _517  and  _518
REMARK  210  A    between atoms: _517  and  _520
REMARK  211  A    between atoms: _520  and  _521
REMARK  212  A    between atoms: _526  and  _528
REMARK  213  A    between atoms: _528  and  _529
REMARK  214  A    between atoms: _528  and  _531
REMARK  215  A    between atoms: _531  and  _532
REMARK  216  A    between atoms: _532  and  _533
REMARK  217  A    between atoms: _533  and  _534
REMARK  218  A    between atoms: _543  and  _545
REMARK  219  A    between atoms: _545  and  _546
REMARK  220  A    between atoms: _545  and  _548
REMARK  221  A    between atoms: _548  and  _549
REMARK  222  A    between atoms: _549  and  _550
REMARK  223  A    between atoms: _550  and  _551
REMARK  224  A    between atoms: _560  and  _562
REMARK  225  A    between atoms: _562  and  _563
REMARK  226  A    between atoms: _562  and  _565
REMARK  227  A    between atoms: _565  and  _566
REMARK  228  A    between atoms: _568  and  _570
REMARK  229  A    between atoms: _570  and  _571
REMARK  230  A    between atoms: _570  and  _573
REMARK  231  A    between atoms: _573  and  _574
REMARK  232  A    between atoms: _574  and  _575
REMARK  233  A    between atoms: _580  and  _582
REMARK  234  A    between atoms: _582  and  _583
REMARK  235  A    between atoms: _582  and  _585
REMARK  236  A    between atoms: _585  and  _586
REMARK  237  A    between atoms: _589  and  _591
REMARK  238  A    between atoms: _591  and  _592
REMARK  239  A    between atoms: _591  and  _594
REMARK  240  A    between atoms: _594  and  _595
REMARK  241  A    between atoms: _598  and  _600
REMARK  242  A    between atoms: _600  and  _601
REMARK  243  A    between atoms: _600  and  _603
REMARK  244  A    between atoms: _606  and  _608
REMARK  245  A    between atoms: _608  and  _609
REMARK  246  A    between atoms: _611  and  _613
REMARK  247  A    between atoms: _613  and  _614
REMARK  248  A    between atoms: _617  and  _619
REMARK  249  A    between atoms: _619  and  _620
REMARK  250  A    between atoms: _619  and  _622
REMARK                            x       y       z     vdW  Elec       q    Type
REMARK                         _______ _______ _______ _____ _____    ______ ____
ROOT
ATOM      1  O   HOH     1      17.799  18.628  18.921  0.00  0.00    +0.000 OA
ENDROOT
TORSDOF 0
REMARK  Name = ../refined-set-2016/3lpi/3lpi_pocket.pdb
REMARK  250 active torsions:
REMARK  status: ('A' for Active; 'I' for Inactive)
REMARK    1  A    between atoms: _1  and  _3
REMARK    2  A    between atoms: _3  and  _4
REMARK    3  A    between atoms: _3  and  _6
REMARK    4  A    between atoms: _6  and  _7
REMARK    5  A    between atoms: _7  and  _8
REMARK    6  A    between atoms: _8  and  _9
REMARK    7  A    between atoms: _9  and  _10
REMARK    8  A    between atoms: _14  and  _16
REMARK    9  A    between atoms: _16  and  _17
REMARK   10  A    between atoms: _16  and  _19
REMARK   11  A    between atoms: _19  and  _20
REMARK   12  A    between atoms: _22  and  _24
REMARK   13  A    between atoms: _24  and  _25
REMARK   14  A    between atoms: _27  and  _29
REMARK   15  A    between atoms: _29  and  _30
REMARK   16  A    between atoms: _29  and  _32
REMARK   17  A    between atoms: _32  and  _33
REMARK   18  A    between atoms: _33  and  _34
REMARK   19  A    between atoms: _39  and  _41
REMARK   20  A    between atoms: _41  and  _42
REMARK   21  A    between atoms: _44  and  _46
REMARK   22  A    between atoms: _46  and  _47
REMARK   23  A    between atoms: _46  and  _49
REMARK   24  A    between atoms: _49  and  _50
REMARK   25  A    between atoms: _55  and  _56
REMARK   26  A    between atoms: _58  and  _60
REMARK   27  A    between atoms: _60  and  _61
REMARK   28  A    between atoms: _60  and  _63
REMARK   29  A    between atoms: _63  and  _64
REMARK   30  A    between atoms: _67  and  _69
REMARK   31  A    between atoms: _69  and  _70
REMARK   32  A    between atoms: _69  and  _72
REMARK   33  A    between atoms: _75  and  _77
REMARK   34  A    between atoms: _77  and  _78
REMARK   35  A    between atoms: _77  and  _80
REMARK   36  A    between atoms: _80  and  _81
REMARK   37  A    between atoms: _84  and  _86
REMARK   38  A    between atoms: _86  and  _87
REMARK   39  A    between atoms: _86  and  _89
REMARK   40  A    between atoms: _89  and  _90
REMARK   41  A    between atoms: _93  and  _95
REMARK   42  A    between atoms: _95  and  _96
REMARK   43  A    between atoms: _98  and  _100
REMARK   44  A    between atoms: _100  and  _101
REMARK   45  A    between atoms: _100  and  _103
REMARK   46  A    between atoms: _103  and  _104
REMARK   47  A    between atoms: _106  and  _108
REMARK   48  A    between atoms: _108  and  _109
REMARK   49  A    between atoms: _108  and  _111
REMARK   50  A    between atoms: _111  and  _112
REMARK   51  A    between atoms: _114  and  _116
REMARK   52  A    between atoms: _116  and  _117
REMARK   53  A    between atoms: _116  and  _119
REMARK   54  A    between atoms: _119  and  _120
REMARK   55  A    between atoms: _125  and  _127
REMARK   56  A    between atoms: _127  and  _128
REMARK   57  A    between atoms: _127  and  _130
REMARK   58  A    between atoms: _130  and  _131
REMARK   59  A    between atoms: _136  and  _137
REMARK   60  A    between atoms: _139  and  _141
REMARK   61  A    between atoms: _141  and  _142
REMARK   62  A    between atoms: _141  and  _144
REMARK   63  A    between atoms: _148  and  _149
REMARK   64  A    between atoms: _154  and  _156
REMARK   65  A    between atoms: _156  and  _157
REMARK   66  A    between atoms: _156  and  _159
REMARK   67  A    between atoms: _159  and  _160
REMARK   68  A    between atoms: _165  and  _166
REMARK   69  A    between atoms: _168  and  _170
REMARK   70  A    between atoms: _170  and  _171
REMARK   71  A    between atoms: _170  and  _173
REMARK   72  A    between atoms: _173  and  _174
REMARK   73  A    between atoms: _177  and  _179
REMARK   74  A    between atoms: _179  and  _180
REMARK   75  A    between atoms: _179  and  _182
REMARK   76  A    between atoms: _182  and  _183
REMARK   77  A    between atoms: _183  and  _184
REMARK   78  A    between atoms: _189  and  _191
REMARK   79  A    between atoms: _191  and  _192
REMARK   80  A    between atoms: _194  and  _196
REMARK   81  A    between atoms: _196  and  _197
REMARK   82  A    between atoms: _196  and  _199
REMARK   83  A    between atoms: _199  and  _200
REMARK   84  A    between atoms: _200  and  _201
REMARK   85  A    between atoms: _201  and  _202
REMARK   86  A    between atoms: _202  and  _203
REMARK   87  A    between atoms: _207  and  _209
REMARK   88  A    between atoms: _209  and  _210
REMARK   89  A    between atoms: _209  and  _212
REMARK   90  A    between atoms: _212  and  _213
REMARK   91  A    between atoms: _223  and  _225
REMARK   92  A    between atoms: _225  and  _226
REMARK   93  A    between atoms: _225  and  _228
REMARK   94  A    between atoms: _228  and  _229
REMARK   95  A    between atoms: _232  and  _234
REMARK   96  A    between atoms: _234  and  _235
REMARK   97  A    between atoms: _234  and  _237
REMARK   98  A    between atoms: _237  and  _238
REMARK   99  A    between atoms: _238  and  _239
REMARK  100  A    between atoms: _239  and  _240
REMARK  101  A    between atoms: _240  and  _241
REMARK  102  A    between atoms: _245  and  _247
REMARK  103  A    between atoms: _247  and  _248
REMARK  104  A    between atoms: _247  and  _250
REMARK  105  A    between atoms: _250  and  _251
REMARK  106  A    between atoms: _257  and  _259
REMARK  107  A    between atoms: _259  and  _260
REMARK  108  A    between atoms: _259  and  _262
REMARK  109  A    between atoms: _262  and  _263
REMARK  110  A    between atoms: _269  and  _271
REMARK  111  A    between atoms: _271  and  _272
REMARK  112  A    between atoms: _271  and  _274
REMARK  113  A    between atoms: _274  and  _275
REMARK  114  A    between atoms: _278  and  _280
REMARK  115  A    between atoms: _280  and  _281
REMARK  116  A    between atoms: _280  and  _283
REMARK  117  A    between atoms: _283  and  _284
REMARK  118  A    between atoms: _286  and  _288
REMARK  119  A    between atoms: _288  and  _289
REMARK  120  A    between atoms: _288  and  _291
REMARK  121  A    between atoms: _291  and  _292
REMARK  122  A    between atoms: _302  and  _304
REMARK  123  A    between atoms: _304  and  _305
REMARK  124  A    between atoms: _307  and  _309
REMARK  125  A    between atoms: _309  and  _310
REMARK  126  A    between atoms: _309  and  _312
REMARK  127  A    between atoms: _312  and  _313
REMARK  128  A    between atoms: _316  and  _318
REMARK  129  A    between atoms: _318  and  _319
REMARK  130  A    between atoms: _318  and  _321
REMARK  131  A    between atoms: _321  and  _322
REMARK  132  A    between atoms: _325  and  _327
REMARK  133  A    between atoms: _327  and  _328
REMARK  134  A    between atoms: _330  and  _332
REMARK  135  A    between atoms: _332  and  _333
REMARK  136  A    between atoms: _332  and  _335
REMARK  137  A    between atoms: _335  and  _336
REMARK  138  A    between atoms: _339  and  _341
REMARK  139  A    between atoms: _341  and  _342
REMARK  140  A    between atoms: _345  and  _347
REMARK  141  A    between atoms: _347  and  _348
REMARK  142  A    between atoms: _347  and  _350
REMARK  143  A    between atoms: _350  and  _351
REMARK  144  A    between atoms: _356  and  _357
REMARK  145  A    between atoms: _359  and  _361
REMARK  146  A    between atoms: _361  and  _362
REMARK  147  A    between atoms: _361  and  _364
REMARK  148  A    between atoms: _364  and  _365
REMARK  149  A    between atoms: _365  and  _366
REMARK  150  A    between atoms: _369  and  _371
REMARK  151  A    between atoms: _371  and  _372
REMARK  152  A    between atoms: _371  and  _374
REMARK  153  A    between atoms: _374  and  _375
REMARK  154  A    between atoms: _378  and  _380
REMARK  155  A    between atoms: _380  and  _381
REMARK  156  A    between atoms: _384  and  _386
REMARK  157  A    between atoms: _386  and  _387
REMARK  158  A    between atoms: _386  and  _389
REMARK  159  A    between atoms: _389  and  _390
REMARK  160  A    between atoms: _390  and  _391
REMARK  161  A    between atoms: _391  and  _392
REMARK  162  A    between atoms: _401  and  _403
REMARK  163  A    between atoms: _403  and  _404
REMARK  164  A    between atoms: _403  and  _406
REMARK  165  A    between atoms: _406  and  _407
REMARK  166  A    between atoms: _417  and  _419
REMARK  167  A    between atoms: _419  and  _420
REMARK  168  A    between atoms: _419  and  _422
REMARK  169  A    between atoms: _422  and  _423
REMARK  170  A    between atoms: _428  and  _429
REMARK  171  A    between atoms: _431  and  _433
REMARK  172  A    between atoms: _433  and  _434
REMARK  173  A    between atoms: _433  and  _436
REMARK  174  A    between atoms: _436  and  _437
REMARK  175  A    between atoms: _442  and  _443
REMARK  176  A    between atoms: _445  and  _447
REMARK  177  A    between atoms: _447  and  _448
REMARK  178  A    between atoms: _447  and  _450
REMARK  179  A    between atoms: _450  and  _451
REMARK  180  A    between atoms: _451  and  _452
REMARK  181  A    between atoms: _452  and  _453
REMARK  182  A    between atoms: _453  and  _454
REMARK  183  A    between atoms: _458  and  _460
REMARK  184  A    between atoms: _460  and  _461
REMARK  185  A    between atoms: _460  and  _463
REMARK  186  A    between atoms: _463  and  _464
REMARK  187  A    between atoms: _467  and  _469
REMARK  188  A    between atoms: _469  and  _470
REMARK  189  A    between atoms: _469  and  _472
REMARK  190  A    between atoms: _475  and  _477
REMARK  191  A    between atoms: _477  and  _478
REMARK  192  A    between atoms: _477  and  _480
REMARK  193  A    between atoms: _480  and  _481
REMARK  194  A    between atoms: _484  and  _486
REMARK  195  A    between atoms: _486  and  _487
REMARK  196  A    between atoms: _486  and  _489
REMARK  197  A    between atoms: _489  and  _490
REMARK  198  A    between atoms: _492  and  _494
REMARK  199  A    between atoms: _494  and  _495
REMARK  200  A    between atoms: _497  and  _499
REMARK  201  A    between atoms: _499  and  _500
REMARK  202  A    between atoms: _499  and  _502
REMARK  203  A    between atoms: _502  and  _503
REMARK  204  A    between atoms: _506  and  _508
REMARK  205  A    between atoms: _508  and  _509
REMARK  206  A    between atoms: _508  and  _511
REMARK  207  A    between atoms: _511  and  _512
REMARK  208  A    between atoms: _515  and  _517
REMARK  209  A    between atoms: _517  and  _518
REMARK  210  A    between atoms: _517  and  _520
REMARK  211  A    between atoms: _520  and  _521
REMARK  212  A    between atoms: _526  and  _528
REMARK  213  A    between atoms: _528  and  _529
REMARK  214  A    between atoms: _528  and  _531
REMARK  215  A    between atoms: _531  and  _532
REMARK  216  A    between atoms: _532  and  _533
REMARK  217  A    between atoms: _533  and  _534
REMARK  218  A    between atoms: _543  and  _545
REMARK  219  A    between atoms: _545  and  _546
REMARK  220  A    between atoms: _545  and  _548
REMARK  221  A    between atoms: _548  and  _549
REMARK  222  A    between atoms: _549  and  _550
REMARK  223  A    between atoms: _550  and  _551
REMARK  224  A    between atoms: _560  and  _562
REMARK  225  A    between atoms: _562  and  _563
REMARK  226  A    between atoms: _562  and  _565
REMARK  227  A    between atoms: _565  and  _566
REMARK  228  A    between atoms: _568  and  _570
REMARK  229  A    between atoms: _570  and  _571
REMARK  230  A    between atoms: _570  and  _573
REMARK  231  A    between atoms: _573  and  _574
REMARK  232  A    between atoms: _574  and  _575
REMARK  233  A    between atoms: _580  and  _582
REMARK  234  A    between atoms: _582  and  _583
REMARK  235  A    between atoms: _582  and  _585
REMARK  236  A    between atoms: _585  and  _586
REMARK  237  A    between atoms: _589  and  _591
REMARK  238  A    between atoms: _591  and  _592
REMARK  239  A    between atoms: _591  and  _594
REMARK  240  A    between atoms: _594  and  _595
REMARK  241  A    between atoms: _598  and  _600
REMARK  242  A    between atoms: _600  and  _601
REMARK  243  A    between atoms: _600  and  _603
REMARK  244  A    between atoms: _606  and  _608
REMARK  245  A    between atoms: _608  and  _609
REMARK  246  A    between atoms: _611  and  _613
REMARK  247  A    between atoms: _613  and  _614
REMARK  248  A    between atoms: _617  and  _619
REMARK  249  A    between atoms: _619  and  _620
REMARK  250  A    between atoms: _619  and  _622
REMARK                            x       y       z     vdW  Elec       q    Type
REMARK                         _______ _______ _______ _____ _____    ______ ____
ROOT
ATOM      1  O   HOH     1      19.876  20.048  15.774  0.00  0.00    +0.000 OA
ENDROOT
TORSDOF 0
REMARK  Name = ../refined-set-2016/3lpi/3lpi_pocket.pdb
REMARK  250 active torsions:
REMARK  status: ('A' for Active; 'I' for Inactive)
REMARK    1  A    between atoms: _1  and  _3
REMARK    2  A    between atoms: _3  and  _4
REMARK    3  A    between atoms: _3  and  _6
REMARK    4  A    between atoms: _6  and  _7
REMARK    5  A    between atoms: _7  and  _8
REMARK    6  A    between atoms: _8  and  _9
REMARK    7  A    between atoms: _9  and  _10
REMARK    8  A    between atoms: _14  and  _16
REMARK    9  A    between atoms: _16  and  _17
REMARK   10  A    between atoms: _16  and  _19
REMARK   11  A    between atoms: _19  and  _20
REMARK   12  A    between atoms: _22  and  _24
REMARK   13  A    between atoms: _24  and  _25
REMARK   14  A    between atoms: _27  and  _29
REMARK   15  A    between atoms: _29  and  _30
REMARK   16  A    between atoms: _29  and  _32
REMARK   17  A    between atoms: _32  and  _33
REMARK   18  A    between atoms: _33  and  _34
REMARK   19  A    between atoms: _39  and  _41
REMARK   20  A    between atoms: _41  and  _42
REMARK   21  A    between atoms: _44  and  _46
REMARK   22  A    between atoms: _46  and  _47
REMARK   23  A    between atoms: _46  and  _49
REMARK   24  A    between atoms: _49  and  _50
REMARK   25  A    between atoms: _55  and  _56
REMARK   26  A    between atoms: _58  and  _60
REMARK   27  A    between atoms: _60  and  _61
REMARK   28  A    between atoms: _60  and  _63
REMARK   29  A    between atoms: _63  and  _64
REMARK   30  A    between atoms: _67  and  _69
REMARK   31  A    between atoms: _69  and  _70
REMARK   32  A    between atoms: _69  and  _72
REMARK   33  A    between atoms: _75  and  _77
REMARK   34  A    between atoms: _77  and  _78
REMARK   35  A    between atoms: _77  and  _80
REMARK   36  A    between atoms: _80  and  _81
REMARK   37  A    between atoms: _84  and  _86
REMARK   38  A    between atoms: _86  and  _87
REMARK   39  A    between atoms: _86  and  _89
REMARK   40  A    between atoms: _89  and  _90
REMARK   41  A    between atoms: _93  and  _95
REMARK   42  A    between atoms: _95  and  _96
REMARK   43  A    between atoms: _98  and  _100
REMARK   44  A    between atoms: _100  and  _101
REMARK   45  A    between atoms: _100  and  _103
REMARK   46  A    between atoms: _103  and  _104
REMARK   47  A    between atoms: _106  and  _108
REMARK   48  A    between atoms: _108  and  _109
REMARK   49  A    between atoms: _108  and  _111
REMARK   50  A    between atoms: _111  and  _112
REMARK   51  A    between atoms: _114  and  _116
REMARK   52  A    between atoms: _116  and  _117
REMARK   53  A    between atoms: _116  and  _119
REMARK   54  A    between atoms: _119  and  _120
REMARK   55  A    between atoms: _125  and  _127
REMARK   56  A    between atoms: _127  and  _128
REMARK   57  A    between atoms: _127  and  _130
REMARK   58  A    between atoms: _130  and  _131
REMARK   59  A    between atoms: _136  and  _137
REMARK   60  A    between atoms: _139  and  _141
REMARK   61  A    between atoms: _141  and  _142
REMARK   62  A    between atoms: _141  and  _144
REMARK   63  A    between atoms: _148  and  _149
REMARK   64  A    between atoms: _154  and  _156
REMARK   65  A    between atoms: _156  and  _157
REMARK   66  A    between atoms: _156  and  _159
REMARK   67  A    between atoms: _159  and  _160
REMARK   68  A    between atoms: _165  and  _166
REMARK   69  A    between atoms: _168  and  _170
REMARK   70  A    between atoms: _170  and  _171
REMARK   71  A    between atoms: _170  and  _173
REMARK   72  A    between atoms: _173  and  _174
REMARK   73  A    between atoms: _177  and  _179
REMARK   74  A    between atoms: _179  and  _180
REMARK   75  A    between atoms: _179  and  _182
REMARK   76  A    between atoms: _182  and  _183
REMARK   77  A    between atoms: _183  and  _184
REMARK   78  A    between atoms: _189  and  _191
REMARK   79  A    between atoms: _191  and  _192
REMARK   80  A    between atoms: _194  and  _196
REMARK   81  A    between atoms: _196  and  _197
REMARK   82  A    between atoms: _196  and  _199
REMARK   83  A    between atoms: _199  and  _200
REMARK   84  A    between atoms: _200  and  _201
REMARK   85  A    between atoms: _201  and  _202
REMARK   86  A    between atoms: _202  and  _203
REMARK   87  A    between atoms: _207  and  _209
REMARK   88  A    between atoms: _209  and  _210
REMARK   89  A    between atoms: _209  and  _212
REMARK   90  A    between atoms: _212  and  _213
REMARK   91  A    between atoms: _223  and  _225
REMARK   92  A    between atoms: _225  and  _226
REMARK   93  A    between atoms: _225  and  _228
REMARK   94  A    between atoms: _228  and  _229
REMARK   95  A    between atoms: _232  and  _234
REMARK   96  A    between atoms: _234  and  _235
REMARK   97  A    between atoms: _234  and  _237
REMARK   98  A    between atoms: _237  and  _238
REMARK   99  A    between atoms: _238  and  _239
REMARK  100  A    between atoms: _239  and  _240
REMARK  101  A    between atoms: _240  and  _241
REMARK  102  A    between atoms: _245  and  _247
REMARK  103  A    between atoms: _247  and  _248
REMARK  104  A    between atoms: _247  and  _250
REMARK  105  A    between atoms: _250  and  _251
REMARK  106  A    between atoms: _257  and  _259
REMARK  107  A    between atoms: _259  and  _260
REMARK  108  A    between atoms: _259  and  _262
REMARK  109  A    between atoms: _262  and  _263
REMARK  110  A    between atoms: _269  and  _271
REMARK  111  A    between atoms: _271  and  _272
REMARK  112  A    between atoms: _271  and  _274
REMARK  113  A    between atoms: _274  and  _275
REMARK  114  A    between atoms: _278  and  _280
REMARK  115  A    between atoms: _280  and  _281
REMARK  116  A    between atoms: _280  and  _283
REMARK  117  A    between atoms: _283  and  _284
REMARK  118  A    between atoms: _286  and  _288
REMARK  119  A    between atoms: _288  and  _289
REMARK  120  A    between atoms: _288  and  _291
REMARK  121  A    between atoms: _291  and  _292
REMARK  122  A    between atoms: _302  and  _304
REMARK  123  A    between atoms: _304  and  _305
REMARK  124  A    between atoms: _307  and  _309
REMARK  125  A    between atoms: _309  and  _310
REMARK  126  A    between atoms: _309  and  _312
REMARK  127  A    between atoms: _312  and  _313
REMARK  128  A    between atoms: _316  and  _318
REMARK  129  A    between atoms: _318  and  _319
REMARK  130  A    between atoms: _318  and  _321
REMARK  131  A    between atoms: _321  and  _322
REMARK  132  A    between atoms: _325  and  _327
REMARK  133  A    between atoms: _327  and  _328
REMARK  134  A    between atoms: _330  and  _332
REMARK  135  A    between atoms: _332  and  _333
REMARK  136  A    between atoms: _332  and  _335
REMARK  137  A    between atoms: _335  and  _336
REMARK  138  A    between atoms: _339  and  _341
REMARK  139  A    between atoms: _341  and  _342
REMARK  140  A    between atoms: _345  and  _347
REMARK  141  A    between atoms: _347  and  _348
REMARK  142  A    between atoms: _347  and  _350
REMARK  143  A    between atoms: _350  and  _351
REMARK  144  A    between atoms: _356  and  _357
REMARK  145  A    between atoms: _359  and  _361
REMARK  146  A    between atoms: _361  and  _362
REMARK  147  A    between atoms: _361  and  _364
REMARK  148  A    between atoms: _364  and  _365
REMARK  149  A    between atoms: _365  and  _366
REMARK  150  A    between atoms: _369  and  _371
REMARK  151  A    between atoms: _371  and  _372
REMARK  152  A    between atoms: _371  and  _374
REMARK  153  A    between atoms: _374  and  _375
REMARK  154  A    between atoms: _378  and  _380
REMARK  155  A    between atoms: _380  and  _381
REMARK  156  A    between atoms: _384  and  _386
REMARK  157  A    between atoms: _386  and  _387
REMARK  158  A    between atoms: _386  and  _389
REMARK  159  A    between atoms: _389  and  _390
REMARK  160  A    between atoms: _390  and  _391
REMARK  161  A    between atoms: _391  and  _392
REMARK  162  A    between atoms: _401  and  _403
REMARK  163  A    between atoms: _403  and  _404
REMARK  164  A    between atoms: _403  and  _406
REMARK  165  A    between atoms: _406  and  _407
REMARK  166  A    between atoms: _417  and  _419
REMARK  167  A    between atoms: _419  and  _420
REMARK  168  A    between atoms: _419  and  _422
REMARK  169  A    between atoms: _422  and  _423
REMARK  170  A    between atoms: _428  and  _429
REMARK  171  A    between atoms: _431  and  _433
REMARK  172  A    between atoms: _433  and  _434
REMARK  173  A    between atoms: _433  and  _436
REMARK  174  A    between atoms: _436  and  _437
REMARK  175  A    between atoms: _442  and  _443
REMARK  176  A    between atoms: _445  and  _447
REMARK  177  A    between atoms: _447  and  _448
REMARK  178  A    between atoms: _447  and  _450
REMARK  179  A    between atoms: _450  and  _451
REMARK  180  A    between atoms: _451  and  _452
REMARK  181  A    between atoms: _452  and  _453
REMARK  182  A    between atoms: _453  and  _454
REMARK  183  A    between atoms: _458  and  _460
REMARK  184  A    between atoms: _460  and  _461
REMARK  185  A    between atoms: _460  and  _463
REMARK  186  A    between atoms: _463  and  _464
REMARK  187  A    between atoms: _467  and  _469
REMARK  188  A    between atoms: _469  and  _470
REMARK  189  A    between atoms: _469  and  _472
REMARK  190  A    between atoms: _475  and  _477
REMARK  191  A    between atoms: _477  and  _478
REMARK  192  A    between atoms: _477  and  _480
REMARK  193  A    between atoms: _480  and  _481
REMARK  194  A    between atoms: _484  and  _486
REMARK  195  A    between atoms: _486  and  _487
REMARK  196  A    between atoms: _486  and  _489
REMARK  197  A    between atoms: _489  and  _490
REMARK  198  A    between atoms: _492  and  _494
REMARK  199  A    between atoms: _494  and  _495
REMARK  200  A    between atoms: _497  and  _499
REMARK  201  A    between atoms: _499  and  _500
REMARK  202  A    between atoms: _499  and  _502
REMARK  203  A    between atoms: _502  and  _503
REMARK  204  A    between atoms: _506  and  _508
REMARK  205  A    between atoms: _508  and  _509
REMARK  206  A    between atoms: _508  and  _511
REMARK  207  A    between atoms: _511  and  _512
REMARK  208  A    between atoms: _515  and  _517
REMARK  209  A    between atoms: _517  and  _518
REMARK  210  A    between atoms: _517  and  _520
REMARK  211  A    between atoms: _520  and  _521
REMARK  212  A    between atoms: _526  and  _528
REMARK  213  A    between atoms: _528  and  _529
REMARK  214  A    between atoms: _528  and  _531
REMARK  215  A    between atoms: _531  and  _532
REMARK  216  A    between atoms: _532  and  _533
REMARK  217  A    between atoms: _533  and  _534
REMARK  218  A    between atoms: _543  and  _545
REMARK  219  A    between atoms: _545  and  _546
REMARK  220  A    between atoms: _545  and  _548
REMARK  221  A    between atoms: _548  and  _549
REMARK  222  A    between atoms: _549  and  _550
REMARK  223  A    between atoms: _550  and  _551
REMARK  224  A    between atoms: _560  and  _562
REMARK  225  A    between atoms: _562  and  _563
REMARK  226  A    between atoms: _562  and  _565
REMARK  227  A    between atoms: _565  and  _566
REMARK  228  A    between atoms: _568  and  _570
REMARK  229  A    between atoms: _570  and  _571
REMARK  230  A    between atoms: _570  and  _573
REMARK  231  A    between atoms: _573  and  _574
REMARK  232  A    between atoms: _574  and  _575
REMARK  233  A    between atoms: _580  and  _582
REMARK  234  A    between atoms: _582  and  _583
REMARK  235  A    between atoms: _582  and  _585
REMARK  236  A    between atoms: _585  and  _586
REMARK  237  A    between atoms: _589  and  _591
REMARK  238  A    between atoms: _591  and  _592
REMARK  239  A    between atoms: _591  and  _594
REMARK  240  A    between atoms: _594  and  _595
REMARK  241  A    between atoms: _598  and  _600
REMARK  242  A    between atoms: _600  and  _601
REMARK  243  A    between atoms: _600  and  _603
REMARK  244  A    between atoms: _606  and  _608
REMARK  245  A    between atoms: _608  and  _609
REMARK  246  A    between atoms: _611  and  _613
REMARK  247  A    between atoms: _613  and  _614
REMARK  248  A    between atoms: _617  and  _619
REMARK  249  A    between atoms: _619  and  _620
REMARK  250  A    between atoms: _619  and  _622
REMARK                            x       y       z     vdW  Elec       q    Type
REMARK                         _______ _______ _______ _____ _____    ______ ____
ROOT
ATOM      1  O   HOH     1      35.217  16.048  26.811  0.00  0.00    +0.000 OA
ENDROOT
TORSDOF 0
REMARK  Name = ../refined-set-2016/3lpi/3lpi_pocket.pdb
REMARK  250 active torsions:
REMARK  status: ('A' for Active; 'I' for Inactive)
REMARK    1  A    between atoms: _1  and  _3
REMARK    2  A    between atoms: _3  and  _4
REMARK    3  A    between atoms: _3  and  _6
REMARK    4  A    between atoms: _6  and  _7
REMARK    5  A    between atoms: _7  and  _8
REMARK    6  A    between atoms: _8  and  _9
REMARK    7  A    between atoms: _9  and  _10
REMARK    8  A    between atoms: _14  and  _16
REMARK    9  A    between atoms: _16  and  _17
REMARK   10  A    between atoms: _16  and  _19
REMARK   11  A    between atoms: _19  and  _20
REMARK   12  A    between atoms: _22  and  _24
REMARK   13  A    between atoms: _24  and  _25
REMARK   14  A    between atoms: _27  and  _29
REMARK   15  A    between atoms: _29  and  _30
REMARK   16  A    between atoms: _29  and  _32
REMARK   17  A    between atoms: _32  and  _33
REMARK   18  A    between atoms: _33  and  _34
REMARK   19  A    between atoms: _39  and  _41
REMARK   20  A    between atoms: _41  and  _42
REMARK   21  A    between atoms: _44  and  _46
REMARK   22  A    between atoms: _46  and  _47
REMARK   23  A    between atoms: _46  and  _49
REMARK   24  A    between atoms: _49  and  _50
REMARK   25  A    between atoms: _55  and  _56
REMARK   26  A    between atoms: _58  and  _60
REMARK   27  A    between atoms: _60  and  _61
REMARK   28  A    between atoms: _60  and  _63
REMARK   29  A    between atoms: _63  and  _64
REMARK   30  A    between atoms: _67  and  _69
REMARK   31  A    between atoms: _69  and  _70
REMARK   32  A    between atoms: _69  and  _72
REMARK   33  A    between atoms: _75  and  _77
REMARK   34  A    between atoms: _77  and  _78
REMARK   35  A    between atoms: _77  and  _80
REMARK   36  A    between atoms: _80  and  _81
REMARK   37  A    between atoms: _84  and  _86
REMARK   38  A    between atoms: _86  and  _87
REMARK   39  A    between atoms: _86  and  _89
REMARK   40  A    between atoms: _89  and  _90
REMARK   41  A    between atoms: _93  and  _95
REMARK   42  A    between atoms: _95  and  _96
REMARK   43  A    between atoms: _98  and  _100
REMARK   44  A    between atoms: _100  and  _101
REMARK   45  A    between atoms: _100  and  _103
REMARK   46  A    between atoms: _103  and  _104
REMARK   47  A    between atoms: _106  and  _108
REMARK   48  A    between atoms: _108  and  _109
REMARK   49  A    between atoms: _108  and  _111
REMARK   50  A    between atoms: _111  and  _112
REMARK   51  A    between atoms: _114  and  _116
REMARK   52  A    between atoms: _116  and  _117
REMARK   53  A    between atoms: _116  and  _119
REMARK   54  A    between atoms: _119  and  _120
REMARK   55  A    between atoms: _125  and  _127
REMARK   56  A    between atoms: _127  and  _128
REMARK   57  A    between atoms: _127  and  _130
REMARK   58  A    between atoms: _130  and  _131
REMARK   59  A    between atoms: _136  and  _137
REMARK   60  A    between atoms: _139  and  _141
REMARK   61  A    between atoms: _141  and  _142
REMARK   62  A    between atoms: _141  and  _144
REMARK   63  A    between atoms: _148  and  _149
REMARK   64  A    between atoms: _154  and  _156
REMARK   65  A    between atoms: _156  and  _157
REMARK   66  A    between atoms: _156  and  _159
REMARK   67  A    between atoms: _159  and  _160
REMARK   68  A    between atoms: _165  and  _166
REMARK   69  A    between atoms: _168  and  _170
REMARK   70  A    between atoms: _170  and  _171
REMARK   71  A    between atoms: _170  and  _173
REMARK   72  A    between atoms: _173  and  _174
REMARK   73  A    between atoms: _177  and  _179
REMARK   74  A    between atoms: _179  and  _180
REMARK   75  A    between atoms: _179  and  _182
REMARK   76  A    between atoms: _182  and  _183
REMARK   77  A    between atoms: _183  and  _184
REMARK   78  A    between atoms: _189  and  _191
REMARK   79  A    between atoms: _191  and  _192
REMARK   80  A    between atoms: _194  and  _196
REMARK   81  A    between atoms: _196  and  _197
REMARK   82  A    between atoms: _196  and  _199
REMARK   83  A    between atoms: _199  and  _200
REMARK   84  A    between atoms: _200  and  _201
REMARK   85  A    between atoms: _201  and  _202
REMARK   86  A    between atoms: _202  and  _203
REMARK   87  A    between atoms: _207  and  _209
REMARK   88  A    between atoms: _209  and  _210
REMARK   89  A    between atoms: _209  and  _212
REMARK   90  A    between atoms: _212  and  _213
REMARK   91  A    between atoms: _223  and  _225
REMARK   92  A    between atoms: _225  and  _226
REMARK   93  A    between atoms: _225  and  _228
REMARK   94  A    between atoms: _228  and  _229
REMARK   95  A    between atoms: _232  and  _234
REMARK   96  A    between atoms: _234  and  _235
REMARK   97  A    between atoms: _234  and  _237
REMARK   98  A    between atoms: _237  and  _238
REMARK   99  A    between atoms: _238  and  _239
REMARK  100  A    between atoms: _239  and  _240
REMARK  101  A    between atoms: _240  and  _241
REMARK  102  A    between atoms: _245  and  _247
REMARK  103  A    between atoms: _247  and  _248
REMARK  104  A    between atoms: _247  and  _250
REMARK  105  A    between atoms: _250  and  _251
REMARK  106  A    between atoms: _257  and  _259
REMARK  107  A    between atoms: _259  and  _260
REMARK  108  A    between atoms: _259  and  _262
REMARK  109  A    between atoms: _262  and  _263
REMARK  110  A    between atoms: _269  and  _271
REMARK  111  A    between atoms: _271  and  _272
REMARK  112  A    between atoms: _271  and  _274
REMARK  113  A    between atoms: _274  and  _275
REMARK  114  A    between atoms: _278  and  _280
REMARK  115  A    between atoms: _280  and  _281
REMARK  116  A    between atoms: _280  and  _283
REMARK  117  A    between atoms: _283  and  _284
REMARK  118  A    between atoms: _286  and  _288
REMARK  119  A    between atoms: _288  and  _289
REMARK  120  A    between atoms: _288  and  _291
REMARK  121  A    between atoms: _291  and  _292
REMARK  122  A    between atoms: _302  and  _304
REMARK  123  A    between atoms: _304  and  _305
REMARK  124  A    between atoms: _307  and  _309
REMARK  125  A    between atoms: _309  and  _310
REMARK  126  A    between atoms: _309  and  _312
REMARK  127  A    between atoms: _312  and  _313
REMARK  128  A    between atoms: _316  and  _318
REMARK  129  A    between atoms: _318  and  _319
REMARK  130  A    between atoms: _318  and  _321
REMARK  131  A    between atoms: _321  and  _322
REMARK  132  A    between atoms: _325  and  _327
REMARK  133  A    between atoms: _327  and  _328
REMARK  134  A    between atoms: _330  and  _332
REMARK  135  A    between atoms: _332  and  _333
REMARK  136  A    between atoms: _332  and  _335
REMARK  137  A    between atoms: _335  and  _336
REMARK  138  A    between atoms: _339  and  _341
REMARK  139  A    between atoms: _341  and  _342
REMARK  140  A    between atoms: _345  and  _347
REMARK  141  A    between atoms: _347  and  _348
REMARK  142  A    between atoms: _347  and  _350
REMARK  143  A    between atoms: _350  and  _351
REMARK  144  A    between atoms: _356  and  _357
REMARK  145  A    between atoms: _359  and  _361
REMARK  146  A    between atoms: _361  and  _362
REMARK  147  A    between atoms: _361  and  _364
REMARK  148  A    between atoms: _364  and  _365
REMARK  149  A    between atoms: _365  and  _366
REMARK  150  A    between atoms: _369  and  _371
REMARK  151  A    between atoms: _371  and  _372
REMARK  152  A    between atoms: _371  and  _374
REMARK  153  A    between atoms: _374  and  _375
REMARK  154  A    between atoms: _378  and  _380
REMARK  155  A    between atoms: _380  and  _381
REMARK  156  A    between atoms: _384  and  _386
REMARK  157  A    between atoms: _386  and  _387
REMARK  158  A    between atoms: _386  and  _389
REMARK  159  A    between atoms: _389  and  _390
REMARK  160  A    between atoms: _390  and  _391
REMARK  161  A    between atoms: _391  and  _392
REMARK  162  A    between atoms: _401  and  _403
REMARK  163  A    between atoms: _403  and  _404
REMARK  164  A    between atoms: _403  and  _406
REMARK  165  A    between atoms: _406  and  _407
REMARK  166  A    between atoms: _417  and  _419
REMARK  167  A    between atoms: _419  and  _420
REMARK  168  A    between atoms: _419  and  _422
REMARK  169  A    between atoms: _422  and  _423
REMARK  170  A    between atoms: _428  and  _429
REMARK  171  A    between atoms: _431  and  _433
REMARK  172  A    between atoms: _433  and  _434
REMARK  173  A    between atoms: _433  and  _436
REMARK  174  A    between atoms: _436  and  _437
REMARK  175  A    between atoms: _442  and  _443
REMARK  176  A    between atoms: _445  and  _447
REMARK  177  A    between atoms: _447  and  _448
REMARK  178  A    between atoms: _447  and  _450
REMARK  179  A    between atoms: _450  and  _451
REMARK  180  A    between atoms: _451  and  _452
REMARK  181  A    between atoms: _452  and  _453
REMARK  182  A    between atoms: _453  and  _454
REMARK  183  A    between atoms: _458  and  _460
REMARK  184  A    between atoms: _460  and  _461
REMARK  185  A    between atoms: _460  and  _463
REMARK  186  A    between atoms: _463  and  _464
REMARK  187  A    between atoms: _467  and  _469
REMARK  188  A    between atoms: _469  and  _470
REMARK  189  A    between atoms: _469  and  _472
REMARK  190  A    between atoms: _475  and  _477
REMARK  191  A    between atoms: _477  and  _478
REMARK  192  A    between atoms: _477  and  _480
REMARK  193  A    between atoms: _480  and  _481
REMARK  194  A    between atoms: _484  and  _486
REMARK  195  A    between atoms: _486  and  _487
REMARK  196  A    between atoms: _486  and  _489
REMARK  197  A    between atoms: _489  and  _490
REMARK  198  A    between atoms: _492  and  _494
REMARK  199  A    between atoms: _494  and  _495
REMARK  200  A    between atoms: _497  and  _499
REMARK  201  A    between atoms: _499  and  _500
REMARK  202  A    between atoms: _499  and  _502
REMARK  203  A    between atoms: _502  and  _503
REMARK  204  A    between atoms: _506  and  _508
REMARK  205  A    between atoms: _508  and  _509
REMARK  206  A    between atoms: _508  and  _511
REMARK  207  A    between atoms: _511  and  _512
REMARK  208  A    between atoms: _515  and  _517
REMARK  209  A    between atoms: _517  and  _518
REMARK  210  A    between atoms: _517  and  _520
REMARK  211  A    between atoms: _520  and  _521
REMARK  212  A    between atoms: _526  and  _528
REMARK  213  A    between atoms: _528  and  _529
REMARK  214  A    between atoms: _528  and  _531
REMARK  215  A    between atoms: _531  and  _532
REMARK  216  A    between atoms: _532  and  _533
REMARK  217  A    between atoms: _533  and  _534
REMARK  218  A    between atoms: _543  and  _545
REMARK  219  A    between atoms: _545  and  _546
REMARK  220  A    between atoms: _545  and  _548
REMARK  221  A    between atoms: _548  and  _549
REMARK  222  A    between atoms: _549  and  _550
REMARK  223  A    between atoms: _550  and  _551
REMARK  224  A    between atoms: _560  and  _562
REMARK  225  A    between atoms: _562  and  _563
REMARK  226  A    between atoms: _562  and  _565
REMARK  227  A    between atoms: _565  and  _566
REMARK  228  A    between atoms: _568  and  _570
REMARK  229  A    between atoms: _570  and  _571
REMARK  230  A    between atoms: _570  and  _573
REMARK  231  A    between atoms: _573  and  _574
REMARK  232  A    between atoms: _574  and  _575
REMARK  233  A    between atoms: _580  and  _582
REMARK  234  A    between atoms: _582  and  _583
REMARK  235  A    between atoms: _582  and  _585
REMARK  236  A    between atoms: _585  and  _586
REMARK  237  A    between atoms: _589  and  _591
REMARK  238  A    between atoms: _591  and  _592
REMARK  239  A    between atoms: _591  and  _594
REMARK  240  A    between atoms: _594  and  _595
REMARK  241  A    between atoms: _598  and  _600
REMARK  242  A    between atoms: _600  and  _601
REMARK  243  A    between atoms: _600  and  _603
REMARK  244  A    between atoms: _606  and  _608
REMARK  245  A    between atoms: _608  and  _609
REMARK  246  A    between atoms: _611  and  _613
REMARK  247  A    between atoms: _613  and  _614
REMARK  248  A    between atoms: _617  and  _619
REMARK  249  A    between atoms: _619  and  _620
REMARK  250  A    between atoms: _619  and  _622
REMARK                            x       y       z     vdW  Elec       q    Type
REMARK                         _______ _______ _______ _____ _____    ______ ____
ROOT
ATOM      1  O   HOH     1      34.625  14.829  17.011  0.00  0.00    +0.000 OA
ENDROOT
TORSDOF 0
REMARK  Name = ../refined-set-2016/3lpi/3lpi_pocket.pdb
REMARK  250 active torsions:
REMARK  status: ('A' for Active; 'I' for Inactive)
REMARK    1  A    between atoms: _1  and  _3
REMARK    2  A    between atoms: _3  and  _4
REMARK    3  A    between atoms: _3  and  _6
REMARK    4  A    between atoms: _6  and  _7
REMARK    5  A    between atoms: _7  and  _8
REMARK    6  A    between atoms: _8  and  _9
REMARK    7  A    between atoms: _9  and  _10
REMARK    8  A    between atoms: _14  and  _16
REMARK    9  A    between atoms: _16  and  _17
REMARK   10  A    between atoms: _16  and  _19
REMARK   11  A    between atoms: _19  and  _20
REMARK   12  A    between atoms: _22  and  _24
REMARK   13  A    between atoms: _24  and  _25
REMARK   14  A    between atoms: _27  and  _29
REMARK   15  A    between atoms: _29  and  _30
REMARK   16  A    between atoms: _29  and  _32
REMARK   17  A    between atoms: _32  and  _33
REMARK   18  A    between atoms: _33  and  _34
REMARK   19  A    between atoms: _39  and  _41
REMARK   20  A    between atoms: _41  and  _42
REMARK   21  A    between atoms: _44  and  _46
REMARK   22  A    between atoms: _46  and  _47
REMARK   23  A    between atoms: _46  and  _49
REMARK   24  A    between atoms: _49  and  _50
REMARK   25  A    between atoms: _55  and  _56
REMARK   26  A    between atoms: _58  and  _60
REMARK   27  A    between atoms: _60  and  _61
REMARK   28  A    between atoms: _60  and  _63
REMARK   29  A    between atoms: _63  and  _64
REMARK   30  A    between atoms: _67  and  _69
REMARK   31  A    between atoms: _69  and  _70
REMARK   32  A    between atoms: _69  and  _72
REMARK   33  A    between atoms: _75  and  _77
REMARK   34  A    between atoms: _77  and  _78
REMARK   35  A    between atoms: _77  and  _80
REMARK   36  A    between atoms: _80  and  _81
REMARK   37  A    between atoms: _84  and  _86
REMARK   38  A    between atoms: _86  and  _87
REMARK   39  A    between atoms: _86  and  _89
REMARK   40  A    between atoms: _89  and  _90
REMARK   41  A    between atoms: _93  and  _95
REMARK   42  A    between atoms: _95  and  _96
REMARK   43  A    between atoms: _98  and  _100
REMARK   44  A    between atoms: _100  and  _101
REMARK   45  A    between atoms: _100  and  _103
REMARK   46  A    between atoms: _103  and  _104
REMARK   47  A    between atoms: _106  and  _108
REMARK   48  A    between atoms: _108  and  _109
REMARK   49  A    between atoms: _108  and  _111
REMARK   50  A    between atoms: _111  and  _112
REMARK   51  A    between atoms: _114  and  _116
REMARK   52  A    between atoms: _116  and  _117
REMARK   53  A    between atoms: _116  and  _119
REMARK   54  A    between atoms: _119  and  _120
REMARK   55  A    between atoms: _125  and  _127
REMARK   56  A    between atoms: _127  and  _128
REMARK   57  A    between atoms: _127  and  _130
REMARK   58  A    between atoms: _130  and  _131
REMARK   59  A    between atoms: _136  and  _137
REMARK   60  A    between atoms: _139  and  _141
REMARK   61  A    between atoms: _141  and  _142
REMARK   62  A    between atoms: _141  and  _144
REMARK   63  A    between atoms: _148  and  _149
REMARK   64  A    between atoms: _154  and  _156
REMARK   65  A    between atoms: _156  and  _157
REMARK   66  A    between atoms: _156  and  _159
REMARK   67  A    between atoms: _159  and  _160
REMARK   68  A    between atoms: _165  and  _166
REMARK   69  A    between atoms: _168  and  _170
REMARK   70  A    between atoms: _170  and  _171
REMARK   71  A    between atoms: _170  and  _173
REMARK   72  A    between atoms: _173  and  _174
REMARK   73  A    between atoms: _177  and  _179
REMARK   74  A    between atoms: _179  and  _180
REMARK   75  A    between atoms: _179  and  _182
REMARK   76  A    between atoms: _182  and  _183
REMARK   77  A    between atoms: _183  and  _184
REMARK   78  A    between atoms: _189  and  _191
REMARK   79  A    between atoms: _191  and  _192
REMARK   80  A    between atoms: _194  and  _196
REMARK   81  A    between atoms: _196  and  _197
REMARK   82  A    between atoms: _196  and  _199
REMARK   83  A    between atoms: _199  and  _200
REMARK   84  A    between atoms: _200  and  _201
REMARK   85  A    between atoms: _201  and  _202
REMARK   86  A    between atoms: _202  and  _203
REMARK   87  A    between atoms: _207  and  _209
REMARK   88  A    between atoms: _209  and  _210
REMARK   89  A    between atoms: _209  and  _212
REMARK   90  A    between atoms: _212  and  _213
REMARK   91  A    between atoms: _223  and  _225
REMARK   92  A    between atoms: _225  and  _226
REMARK   93  A    between atoms: _225  and  _228
REMARK   94  A    between atoms: _228  and  _229
REMARK   95  A    between atoms: _232  and  _234
REMARK   96  A    between atoms: _234  and  _235
REMARK   97  A    between atoms: _234  and  _237
REMARK   98  A    between atoms: _237  and  _238
REMARK   99  A    between atoms: _238  and  _239
REMARK  100  A    between atoms: _239  and  _240
REMARK  101  A    between atoms: _240  and  _241
REMARK  102  A    between atoms: _245  and  _247
REMARK  103  A    between atoms: _247  and  _248
REMARK  104  A    between atoms: _247  and  _250
REMARK  105  A    between atoms: _250  and  _251
REMARK  106  A    between atoms: _257  and  _259
REMARK  107  A    between atoms: _259  and  _260
REMARK  108  A    between atoms: _259  and  _262
REMARK  109  A    between atoms: _262  and  _263
REMARK  110  A    between atoms: _269  and  _271
REMARK  111  A    between atoms: _271  and  _272
REMARK  112  A    between atoms: _271  and  _274
REMARK  113  A    between atoms: _274  and  _275
REMARK  114  A    between atoms: _278  and  _280
REMARK  115  A    between atoms: _280  and  _281
REMARK  116  A    between atoms: _280  and  _283
REMARK  117  A    between atoms: _283  and  _284
REMARK  118  A    between atoms: _286  and  _288
REMARK  119  A    between atoms: _288  and  _289
REMARK  120  A    between atoms: _288  and  _291
REMARK  121  A    between atoms: _291  and  _292
REMARK  122  A    between atoms: _302  and  _304
REMARK  123  A    between atoms: _304  and  _305
REMARK  124  A    between atoms: _307  and  _309
REMARK  125  A    between atoms: _309  and  _310
REMARK  126  A    between atoms: _309  and  _312
REMARK  127  A    between atoms: _312  and  _313
REMARK  128  A    between atoms: _316  and  _318
REMARK  129  A    between atoms: _318  and  _319
REMARK  130  A    between atoms: _318  and  _321
REMARK  131  A    between atoms: _321  and  _322
REMARK  132  A    between atoms: _325  and  _327
REMARK  133  A    between atoms: _327  and  _328
REMARK  134  A    between atoms: _330  and  _332
REMARK  135  A    between atoms: _332  and  _333
REMARK  136  A    between atoms: _332  and  _335
REMARK  137  A    between atoms: _335  and  _336
REMARK  138  A    between atoms: _339  and  _341
REMARK  139  A    between atoms: _341  and  _342
REMARK  140  A    between atoms: _345  and  _347
REMARK  141  A    between atoms: _347  and  _348
REMARK  142  A    between atoms: _347  and  _350
REMARK  143  A    between atoms: _350  and  _351
REMARK  144  A    between atoms: _356  and  _357
REMARK  145  A    between atoms: _359  and  _361
REMARK  146  A    between atoms: _361  and  _362
REMARK  147  A    between atoms: _361  and  _364
REMARK  148  A    between atoms: _364  and  _365
REMARK  149  A    between atoms: _365  and  _366
REMARK  150  A    between atoms: _369  and  _371
REMARK  151  A    between atoms: _371  and  _372
REMARK  152  A    between atoms: _371  and  _374
REMARK  153  A    between atoms: _374  and  _375
REMARK  154  A    between atoms: _378  and  _380
REMARK  155  A    between atoms: _380  and  _381
REMARK  156  A    between atoms: _384  and  _386
REMARK  157  A    between atoms: _386  and  _387
REMARK  158  A    between atoms: _386  and  _389
REMARK  159  A    between atoms: _389  and  _390
REMARK  160  A    between atoms: _390  and  _391
REMARK  161  A    between atoms: _391  and  _392
REMARK  162  A    between atoms: _401  and  _403
REMARK  163  A    between atoms: _403  and  _404
REMARK  164  A    between atoms: _403  and  _406
REMARK  165  A    between atoms: _406  and  _407
REMARK  166  A    between atoms: _417  and  _419
REMARK  167  A    between atoms: _419  and  _420
REMARK  168  A    between atoms: _419  and  _422
REMARK  169  A    between atoms: _422  and  _423
REMARK  170  A    between atoms: _428  and  _429
REMARK  171  A    between atoms: _431  and  _433
REMARK  172  A    between atoms: _433  and  _434
REMARK  173  A    between atoms: _433  and  _436
REMARK  174  A    between atoms: _436  and  _437
REMARK  175  A    between atoms: _442  and  _443
REMARK  176  A    between atoms: _445  and  _447
REMARK  177  A    between atoms: _447  and  _448
REMARK  178  A    between atoms: _447  and  _450
REMARK  179  A    between atoms: _450  and  _451
REMARK  180  A    between atoms: _451  and  _452
REMARK  181  A    between atoms: _452  and  _453
REMARK  182  A    between atoms: _453  and  _454
REMARK  183  A    between atoms: _458  and  _460
REMARK  184  A    between atoms: _460  and  _461
REMARK  185  A    between atoms: _460  and  _463
REMARK  186  A    between atoms: _463  and  _464
REMARK  187  A    between atoms: _467  and  _469
REMARK  188  A    between atoms: _469  and  _470
REMARK  189  A    between atoms: _469  and  _472
REMARK  190  A    between atoms: _475  and  _477
REMARK  191  A    between atoms: _477  and  _478
REMARK  192  A    between atoms: _477  and  _480
REMARK  193  A    between atoms: _480  and  _481
REMARK  194  A    between atoms: _484  and  _486
REMARK  195  A    between atoms: _486  and  _487
REMARK  196  A    between atoms: _486  and  _489
REMARK  197  A    between atoms: _489  and  _490
REMARK  198  A    between atoms: _492  and  _494
REMARK  199  A    between atoms: _494  and  _495
REMARK  200  A    between atoms: _497  and  _499
REMARK  201  A    between atoms: _499  and  _500
REMARK  202  A    between atoms: _499  and  _502
REMARK  203  A    between atoms: _502  and  _503
REMARK  204  A    between atoms: _506  and  _508
REMARK  205  A    between atoms: _508  and  _509
REMARK  206  A    between atoms: _508  and  _511
REMARK  207  A    between atoms: _511  and  _512
REMARK  208  A    between atoms: _515  and  _517
REMARK  209  A    between atoms: _517  and  _518
REMARK  210  A    between atoms: _517  and  _520
REMARK  211  A    between atoms: _520  and  _521
REMARK  212  A    between atoms: _526  and  _528
REMARK  213  A    between atoms: _528  and  _529
REMARK  214  A    between atoms: _528  and  _531
REMARK  215  A    between atoms: _531  and  _532
REMARK  216  A    between atoms: _532  and  _533
REMARK  217  A    between atoms: _533  and  _534
REMARK  218  A    between atoms: _543  and  _545
REMARK  219  A    between atoms: _545  and  _546
REMARK  220  A    between atoms: _545  and  _548
REMARK  221  A    between atoms: _548  and  _549
REMARK  222  A    between atoms: _549  and  _550
REMARK  223  A    between atoms: _550  and  _551
REMARK  224  A    between atoms: _560  and  _562
REMARK  225  A    between atoms: _562  and  _563
REMARK  226  A    between atoms: _562  and  _565
REMARK  227  A    between atoms: _565  and  _566
REMARK  228  A    between atoms: _568  and  _570
REMARK  229  A    between atoms: _570  and  _571
REMARK  230  A    between atoms: _570  and  _573
REMARK  231  A    between atoms: _573  and  _574
REMARK  232  A    between atoms: _574  and  _575
REMARK  233  A    between atoms: _580  and  _582
REMARK  234  A    between atoms: _582  and  _583
REMARK  235  A    between atoms: _582  and  _585
REMARK  236  A    between atoms: _585  and  _586
REMARK  237  A    between atoms: _589  and  _591
REMARK  238  A    between atoms: _591  and  _592
REMARK  239  A    between atoms: _591  and  _594
REMARK  240  A    between atoms: _594  and  _595
REMARK  241  A    between atoms: _598  and  _600
REMARK  242  A    between atoms: _600  and  _601
REMARK  243  A    between atoms: _600  and  _603
REMARK  244  A    between atoms: _606  and  _608
REMARK  245  A    between atoms: _608  and  _609
REMARK  246  A    between atoms: _611  and  _613
REMARK  247  A    between atoms: _613  and  _614
REMARK  248  A    between atoms: _617  and  _619
REMARK  249  A    between atoms: _619  and  _620
REMARK  250  A    between atoms: _619  and  _622
REMARK                            x       y       z     vdW  Elec       q    Type
REMARK                         _______ _______ _______ _____ _____    ______ ____
ROOT
ATOM      1  O   HOH     1      21.443  19.040  30.479  0.00  0.00    +0.000 OA
ENDROOT
TORSDOF 0
REMARK  Name = ../refined-set-2016/3lpi/3lpi_pocket.pdb
REMARK  250 active torsions:
REMARK  status: ('A' for Active; 'I' for Inactive)
REMARK    1  A    between atoms: _1  and  _3
REMARK    2  A    between atoms: _3  and  _4
REMARK    3  A    between atoms: _3  and  _6
REMARK    4  A    between atoms: _6  and  _7
REMARK    5  A    between atoms: _7  and  _8
REMARK    6  A    between atoms: _8  and  _9
REMARK    7  A    between atoms: _9  and  _10
REMARK    8  A    between atoms: _14  and  _16
REMARK    9  A    between atoms: _16  and  _17
REMARK   10  A    between atoms: _16  and  _19
REMARK   11  A    between atoms: _19  and  _20
REMARK   12  A    between atoms: _22  and  _24
REMARK   13  A    between atoms: _24  and  _25
REMARK   14  A    between atoms: _27  and  _29
REMARK   15  A    between atoms: _29  and  _30
REMARK   16  A    between atoms: _29  and  _32
REMARK   17  A    between atoms: _32  and  _33
REMARK   18  A    between atoms: _33  and  _34
REMARK   19  A    between atoms: _39  and  _41
REMARK   20  A    between atoms: _41  and  _42
REMARK   21  A    between atoms: _44  and  _46
REMARK   22  A    between atoms: _46  and  _47
REMARK   23  A    between atoms: _46  and  _49
REMARK   24  A    between atoms: _49  and  _50
REMARK   25  A    between atoms: _55  and  _56
REMARK   26  A    between atoms: _58  and  _60
REMARK   27  A    between atoms: _60  and  _61
REMARK   28  A    between atoms: _60  and  _63
REMARK   29  A    between atoms: _63  and  _64
REMARK   30  A    between atoms: _67  and  _69
REMARK   31  A    between atoms: _69  and  _70
REMARK   32  A    between atoms: _69  and  _72
REMARK   33  A    between atoms: _75  and  _77
REMARK   34  A    between atoms: _77  and  _78
REMARK   35  A    between atoms: _77  and  _80
REMARK   36  A    between atoms: _80  and  _81
REMARK   37  A    between atoms: _84  and  _86
REMARK   38  A    between atoms: _86  and  _87
REMARK   39  A    between atoms: _86  and  _89
REMARK   40  A    between atoms: _89  and  _90
REMARK   41  A    between atoms: _93  and  _95
REMARK   42  A    between atoms: _95  and  _96
REMARK   43  A    between atoms: _98  and  _100
REMARK   44  A    between atoms: _100  and  _101
REMARK   45  A    between atoms: _100  and  _103
REMARK   46  A    between atoms: _103  and  _104
REMARK   47  A    between atoms: _106  and  _108
REMARK   48  A    between atoms: _108  and  _109
REMARK   49  A    between atoms: _108  and  _111
REMARK   50  A    between atoms: _111  and  _112
REMARK   51  A    between atoms: _114  and  _116
REMARK   52  A    between atoms: _116  and  _117
REMARK   53  A    between atoms: _116  and  _119
REMARK   54  A    between atoms: _119  and  _120
REMARK   55  A    between atoms: _125  and  _127
REMARK   56  A    between atoms: _127  and  _128
REMARK   57  A    between atoms: _127  and  _130
REMARK   58  A    between atoms: _130  and  _131
REMARK   59  A    between atoms: _136  and  _137
REMARK   60  A    between atoms: _139  and  _141
REMARK   61  A    between atoms: _141  and  _142
REMARK   62  A    between atoms: _141  and  _144
REMARK   63  A    between atoms: _148  and  _149
REMARK   64  A    between atoms: _154  and  _156
REMARK   65  A    between atoms: _156  and  _157
REMARK   66  A    between atoms: _156  and  _159
REMARK   67  A    between atoms: _159  and  _160
REMARK   68  A    between atoms: _165  and  _166
REMARK   69  A    between atoms: _168  and  _170
REMARK   70  A    between atoms: _170  and  _171
REMARK   71  A    between atoms: _170  and  _173
REMARK   72  A    between atoms: _173  and  _174
REMARK   73  A    between atoms: _177  and  _179
REMARK   74  A    between atoms: _179  and  _180
REMARK   75  A    between atoms: _179  and  _182
REMARK   76  A    between atoms: _182  and  _183
REMARK   77  A    between atoms: _183  and  _184
REMARK   78  A    between atoms: _189  and  _191
REMARK   79  A    between atoms: _191  and  _192
REMARK   80  A    between atoms: _194  and  _196
REMARK   81  A    between atoms: _196  and  _197
REMARK   82  A    between atoms: _196  and  _199
REMARK   83  A    between atoms: _199  and  _200
REMARK   84  A    between atoms: _200  and  _201
REMARK   85  A    between atoms: _201  and  _202
REMARK   86  A    between atoms: _202  and  _203
REMARK   87  A    between atoms: _207  and  _209
REMARK   88  A    between atoms: _209  and  _210
REMARK   89  A    between atoms: _209  and  _212
REMARK   90  A    between atoms: _212  and  _213
REMARK   91  A    between atoms: _223  and  _225
REMARK   92  A    between atoms: _225  and  _226
REMARK   93  A    between atoms: _225  and  _228
REMARK   94  A    between atoms: _228  and  _229
REMARK   95  A    between atoms: _232  and  _234
REMARK   96  A    between atoms: _234  and  _235
REMARK   97  A    between atoms: _234  and  _237
REMARK   98  A    between atoms: _237  and  _238
REMARK   99  A    between atoms: _238  and  _239
REMARK  100  A    between atoms: _239  and  _240
REMARK  101  A    between atoms: _240  and  _241
REMARK  102  A    between atoms: _245  and  _247
REMARK  103  A    between atoms: _247  and  _248
REMARK  104  A    between atoms: _247  and  _250
REMARK  105  A    between atoms: _250  and  _251
REMARK  106  A    between atoms: _257  and  _259
REMARK  107  A    between atoms: _259  and  _260
REMARK  108  A    between atoms: _259  and  _262
REMARK  109  A    between atoms: _262  and  _263
REMARK  110  A    between atoms: _269  and  _271
REMARK  111  A    between atoms: _271  and  _272
REMARK  112  A    between atoms: _271  and  _274
REMARK  113  A    between atoms: _274  and  _275
REMARK  114  A    between atoms: _278  and  _280
REMARK  115  A    between atoms: _280  and  _281
REMARK  116  A    between atoms: _280  and  _283
REMARK  117  A    between atoms: _283  and  _284
REMARK  118  A    between atoms: _286  and  _288
REMARK  119  A    between atoms: _288  and  _289
REMARK  120  A    between atoms: _288  and  _291
REMARK  121  A    between atoms: _291  and  _292
REMARK  122  A    between atoms: _302  and  _304
REMARK  123  A    between atoms: _304  and  _305
REMARK  124  A    between atoms: _307  and  _309
REMARK  125  A    between atoms: _309  and  _310
REMARK  126  A    between atoms: _309  and  _312
REMARK  127  A    between atoms: _312  and  _313
REMARK  128  A    between atoms: _316  and  _318
REMARK  129  A    between atoms: _318  and  _319
REMARK  130  A    between atoms: _318  and  _321
REMARK  131  A    between atoms: _321  and  _322
REMARK  132  A    between atoms: _325  and  _327
REMARK  133  A    between atoms: _327  and  _328
REMARK  134  A    between atoms: _330  and  _332
REMARK  135  A    between atoms: _332  and  _333
REMARK  136  A    between atoms: _332  and  _335
REMARK  137  A    between atoms: _335  and  _336
REMARK  138  A    between atoms: _339  and  _341
REMARK  139  A    between atoms: _341  and  _342
REMARK  140  A    between atoms: _345  and  _347
REMARK  141  A    between atoms: _347  and  _348
REMARK  142  A    between atoms: _347  and  _350
REMARK  143  A    between atoms: _350  and  _351
REMARK  144  A    between atoms: _356  and  _357
REMARK  145  A    between atoms: _359  and  _361
REMARK  146  A    between atoms: _361  and  _362
REMARK  147  A    between atoms: _361  and  _364
REMARK  148  A    between atoms: _364  and  _365
REMARK  149  A    between atoms: _365  and  _366
REMARK  150  A    between atoms: _369  and  _371
REMARK  151  A    between atoms: _371  and  _372
REMARK  152  A    between atoms: _371  and  _374
REMARK  153  A    between atoms: _374  and  _375
REMARK  154  A    between atoms: _378  and  _380
REMARK  155  A    between atoms: _380  and  _381
REMARK  156  A    between atoms: _384  and  _386
REMARK  157  A    between atoms: _386  and  _387
REMARK  158  A    between atoms: _386  and  _389
REMARK  159  A    between atoms: _389  and  _390
REMARK  160  A    between atoms: _390  and  _391
REMARK  161  A    between atoms: _391  and  _392
REMARK  162  A    between atoms: _401  and  _403
REMARK  163  A    between atoms: _403  and  _404
REMARK  164  A    between atoms: _403  and  _406
REMARK  165  A    between atoms: _406  and  _407
REMARK  166  A    between atoms: _417  and  _419
REMARK  167  A    between atoms: _419  and  _420
REMARK  168  A    between atoms: _419  and  _422
REMARK  169  A    between atoms: _422  and  _423
REMARK  170  A    between atoms: _428  and  _429
REMARK  171  A    between atoms: _431  and  _433
REMARK  172  A    between atoms: _433  and  _434
REMARK  173  A    between atoms: _433  and  _436
REMARK  174  A    between atoms: _436  and  _437
REMARK  175  A    between atoms: _442  and  _443
REMARK  176  A    between atoms: _445  and  _447
REMARK  177  A    between atoms: _447  and  _448
REMARK  178  A    between atoms: _447  and  _450
REMARK  179  A    between atoms: _450  and  _451
REMARK  180  A    between atoms: _451  and  _452
REMARK  181  A    between atoms: _452  and  _453
REMARK  182  A    between atoms: _453  and  _454
REMARK  183  A    between atoms: _458  and  _460
REMARK  184  A    between atoms: _460  and  _461
REMARK  185  A    between atoms: _460  and  _463
REMARK  186  A    between atoms: _463  and  _464
REMARK  187  A    between atoms: _467  and  _469
REMARK  188  A    between atoms: _469  and  _470
REMARK  189  A    between atoms: _469  and  _472
REMARK  190  A    between atoms: _475  and  _477
REMARK  191  A    between atoms: _477  and  _478
REMARK  192  A    between atoms: _477  and  _480
REMARK  193  A    between atoms: _480  and  _481
REMARK  194  A    between atoms: _484  and  _486
REMARK  195  A    between atoms: _486  and  _487
REMARK  196  A    between atoms: _486  and  _489
REMARK  197  A    between atoms: _489  and  _490
REMARK  198  A    between atoms: _492  and  _494
REMARK  199  A    between atoms: _494  and  _495
REMARK  200  A    between atoms: _497  and  _499
REMARK  201  A    between atoms: _499  and  _500
REMARK  202  A    between atoms: _499  and  _502
REMARK  203  A    between atoms: _502  and  _503
REMARK  204  A    between atoms: _506  and  _508
REMARK  205  A    between atoms: _508  and  _509
REMARK  206  A    between atoms: _508  and  _511
REMARK  207  A    between atoms: _511  and  _512
REMARK  208  A    between atoms: _515  and  _517
REMARK  209  A    between atoms: _517  and  _518
REMARK  210  A    between atoms: _517  and  _520
REMARK  211  A    between atoms: _520  and  _521
REMARK  212  A    between atoms: _526  and  _528
REMARK  213  A    between atoms: _528  and  _529
REMARK  214  A    between atoms: _528  and  _531
REMARK  215  A    between atoms: _531  and  _532
REMARK  216  A    between atoms: _532  and  _533
REMARK  217  A    between atoms: _533  and  _534
REMARK  218  A    between atoms: _543  and  _545
REMARK  219  A    between atoms: _545  and  _546
REMARK  220  A    between atoms: _545  and  _548
REMARK  221  A    between atoms: _548  and  _549
REMARK  222  A    between atoms: _549  and  _550
REMARK  223  A    between atoms: _550  and  _551
REMARK  224  A    between atoms: _560  and  _562
REMARK  225  A    between atoms: _562  and  _563
REMARK  226  A    between atoms: _562  and  _565
REMARK  227  A    between atoms: _565  and  _566
REMARK  228  A    between atoms: _568  and  _570
REMARK  229  A    between atoms: _570  and  _571
REMARK  230  A    between atoms: _570  and  _573
REMARK  231  A    between atoms: _573  and  _574
REMARK  232  A    between atoms: _574  and  _575
REMARK  233  A    between atoms: _580  and  _582
REMARK  234  A    between atoms: _582  and  _583
REMARK  235  A    between atoms: _582  and  _585
REMARK  236  A    between atoms: _585  and  _586
REMARK  237  A    between atoms: _589  and  _591
REMARK  238  A    between atoms: _591  and  _592
REMARK  239  A    between atoms: _591  and  _594
REMARK  240  A    between atoms: _594  and  _595
REMARK  241  A    between atoms: _598  and  _600
REMARK  242  A    between atoms: _600  and  _601
REMARK  243  A    between atoms: _600  and  _603
REMARK  244  A    between atoms: _606  and  _608
REMARK  245  A    between atoms: _608  and  _609
REMARK  246  A    between atoms: _611  and  _613
REMARK  247  A    between atoms: _613  and  _614
REMARK  248  A    between atoms: _617  and  _619
REMARK  249  A    between atoms: _619  and  _620
REMARK  250  A    between atoms: _619  and  _622
REMARK                            x       y       z     vdW  Elec       q    Type
REMARK                         _______ _______ _______ _____ _____    ______ ____
ROOT
ATOM      1  O   HOH     1      23.659  13.652  27.425  0.00  0.00    +0.000 OA
ENDROOT
TORSDOF 0
REMARK  Name = ../refined-set-2016/3lpi/3lpi_pocket.pdb
REMARK  250 active torsions:
REMARK  status: ('A' for Active; 'I' for Inactive)
REMARK    1  A    between atoms: _1  and  _3
REMARK    2  A    between atoms: _3  and  _4
REMARK    3  A    between atoms: _3  and  _6
REMARK    4  A    between atoms: _6  and  _7
REMARK    5  A    between atoms: _7  and  _8
REMARK    6  A    between atoms: _8  and  _9
REMARK    7  A    between atoms: _9  and  _10
REMARK    8  A    between atoms: _14  and  _16
REMARK    9  A    between atoms: _16  and  _17
REMARK   10  A    between atoms: _16  and  _19
REMARK   11  A    between atoms: _19  and  _20
REMARK   12  A    between atoms: _22  and  _24
REMARK   13  A    between atoms: _24  and  _25
REMARK   14  A    between atoms: _27  and  _29
REMARK   15  A    between atoms: _29  and  _30
REMARK   16  A    between atoms: _29  and  _32
REMARK   17  A    between atoms: _32  and  _33
REMARK   18  A    between atoms: _33  and  _34
REMARK   19  A    between atoms: _39  and  _41
REMARK   20  A    between atoms: _41  and  _42
REMARK   21  A    between atoms: _44  and  _46
REMARK   22  A    between atoms: _46  and  _47
REMARK   23  A    between atoms: _46  and  _49
REMARK   24  A    between atoms: _49  and  _50
REMARK   25  A    between atoms: _55  and  _56
REMARK   26  A    between atoms: _58  and  _60
REMARK   27  A    between atoms: _60  and  _61
REMARK   28  A    between atoms: _60  and  _63
REMARK   29  A    between atoms: _63  and  _64
REMARK   30  A    between atoms: _67  and  _69
REMARK   31  A    between atoms: _69  and  _70
REMARK   32  A    between atoms: _69  and  _72
REMARK   33  A    between atoms: _75  and  _77
REMARK   34  A    between atoms: _77  and  _78
REMARK   35  A    between atoms: _77  and  _80
REMARK   36  A    between atoms: _80  and  _81
REMARK   37  A    between atoms: _84  and  _86
REMARK   38  A    between atoms: _86  and  _87
REMARK   39  A    between atoms: _86  and  _89
REMARK   40  A    between atoms: _89  and  _90
REMARK   41  A    between atoms: _93  and  _95
REMARK   42  A    between atoms: _95  and  _96
REMARK   43  A    between atoms: _98  and  _100
REMARK   44  A    between atoms: _100  and  _101
REMARK   45  A    between atoms: _100  and  _103
REMARK   46  A    between atoms: _103  and  _104
REMARK   47  A    between atoms: _106  and  _108
REMARK   48  A    between atoms: _108  and  _109
REMARK   49  A    between atoms: _108  and  _111
REMARK   50  A    between atoms: _111  and  _112
REMARK   51  A    between atoms: _114  and  _116
REMARK   52  A    between atoms: _116  and  _117
REMARK   53  A    between atoms: _116  and  _119
REMARK   54  A    between atoms: _119  and  _120
REMARK   55  A    between atoms: _125  and  _127
REMARK   56  A    between atoms: _127  and  _128
REMARK   57  A    between atoms: _127  and  _130
REMARK   58  A    between atoms: _130  and  _131
REMARK   59  A    between atoms: _136  and  _137
REMARK   60  A    between atoms: _139  and  _141
REMARK   61  A    between atoms: _141  and  _142
REMARK   62  A    between atoms: _141  and  _144
REMARK   63  A    between atoms: _148  and  _149
REMARK   64  A    between atoms: _154  and  _156
REMARK   65  A    between atoms: _156  and  _157
REMARK   66  A    between atoms: _156  and  _159
REMARK   67  A    between atoms: _159  and  _160
REMARK   68  A    between atoms: _165  and  _166
REMARK   69  A    between atoms: _168  and  _170
REMARK   70  A    between atoms: _170  and  _171
REMARK   71  A    between atoms: _170  and  _173
REMARK   72  A    between atoms: _173  and  _174
REMARK   73  A    between atoms: _177  and  _179
REMARK   74  A    between atoms: _179  and  _180
REMARK   75  A    between atoms: _179  and  _182
REMARK   76  A    between atoms: _182  and  _183
REMARK   77  A    between atoms: _183  and  _184
REMARK   78  A    between atoms: _189  and  _191
REMARK   79  A    between atoms: _191  and  _192
REMARK   80  A    between atoms: _194  and  _196
REMARK   81  A    between atoms: _196  and  _197
REMARK   82  A    between atoms: _196  and  _199
REMARK   83  A    between atoms: _199  and  _200
REMARK   84  A    between atoms: _200  and  _201
REMARK   85  A    between atoms: _201  and  _202
REMARK   86  A    between atoms: _202  and  _203
REMARK   87  A    between atoms: _207  and  _209
REMARK   88  A    between atoms: _209  and  _210
REMARK   89  A    between atoms: _209  and  _212
REMARK   90  A    between atoms: _212  and  _213
REMARK   91  A    between atoms: _223  and  _225
REMARK   92  A    between atoms: _225  and  _226
REMARK   93  A    between atoms: _225  and  _228
REMARK   94  A    between atoms: _228  and  _229
REMARK   95  A    between atoms: _232  and  _234
REMARK   96  A    between atoms: _234  and  _235
REMARK   97  A    between atoms: _234  and  _237
REMARK   98  A    between atoms: _237  and  _238
REMARK   99  A    between atoms: _238  and  _239
REMARK  100  A    between atoms: _239  and  _240
REMARK  101  A    between atoms: _240  and  _241
REMARK  102  A    between atoms: _245  and  _247
REMARK  103  A    between atoms: _247  and  _248
REMARK  104  A    between atoms: _247  and  _250
REMARK  105  A    between atoms: _250  and  _251
REMARK  106  A    between atoms: _257  and  _259
REMARK  107  A    between atoms: _259  and  _260
REMARK  108  A    between atoms: _259  and  _262
REMARK  109  A    between atoms: _262  and  _263
REMARK  110  A    between atoms: _269  and  _271
REMARK  111  A    between atoms: _271  and  _272
REMARK  112  A    between atoms: _271  and  _274
REMARK  113  A    between atoms: _274  and  _275
REMARK  114  A    between atoms: _278  and  _280
REMARK  115  A    between atoms: _280  and  _281
REMARK  116  A    between atoms: _280  and  _283
REMARK  117  A    between atoms: _283  and  _284
REMARK  118  A    between atoms: _286  and  _288
REMARK  119  A    between atoms: _288  and  _289
REMARK  120  A    between atoms: _288  and  _291
REMARK  121  A    between atoms: _291  and  _292
REMARK  122  A    between atoms: _302  and  _304
REMARK  123  A    between atoms: _304  and  _305
REMARK  124  A    between atoms: _307  and  _309
REMARK  125  A    between atoms: _309  and  _310
REMARK  126  A    between atoms: _309  and  _312
REMARK  127  A    between atoms: _312  and  _313
REMARK  128  A    between atoms: _316  and  _318
REMARK  129  A    between atoms: _318  and  _319
REMARK  130  A    between atoms: _318  and  _321
REMARK  131  A    between atoms: _321  and  _322
REMARK  132  A    between atoms: _325  and  _327
REMARK  133  A    between atoms: _327  and  _328
REMARK  134  A    between atoms: _330  and  _332
REMARK  135  A    between atoms: _332  and  _333
REMARK  136  A    between atoms: _332  and  _335
REMARK  137  A    between atoms: _335  and  _336
REMARK  138  A    between atoms: _339  and  _341
REMARK  139  A    between atoms: _341  and  _342
REMARK  140  A    between atoms: _345  and  _347
REMARK  141  A    between atoms: _347  and  _348
REMARK  142  A    between atoms: _347  and  _350
REMARK  143  A    between atoms: _350  and  _351
REMARK  144  A    between atoms: _356  and  _357
REMARK  145  A    between atoms: _359  and  _361
REMARK  146  A    between atoms: _361  and  _362
REMARK  147  A    between atoms: _361  and  _364
REMARK  148  A    between atoms: _364  and  _365
REMARK  149  A    between atoms: _365  and  _366
REMARK  150  A    between atoms: _369  and  _371
REMARK  151  A    between atoms: _371  and  _372
REMARK  152  A    between atoms: _371  and  _374
REMARK  153  A    between atoms: _374  and  _375
REMARK  154  A    between atoms: _378  and  _380
REMARK  155  A    between atoms: _380  and  _381
REMARK  156  A    between atoms: _384  and  _386
REMARK  157  A    between atoms: _386  and  _387
REMARK  158  A    between atoms: _386  and  _389
REMARK  159  A    between atoms: _389  and  _390
REMARK  160  A    between atoms: _390  and  _391
REMARK  161  A    between atoms: _391  and  _392
REMARK  162  A    between atoms: _401  and  _403
REMARK  163  A    between atoms: _403  and  _404
REMARK  164  A    between atoms: _403  and  _406
REMARK  165  A    between atoms: _406  and  _407
REMARK  166  A    between atoms: _417  and  _419
REMARK  167  A    between atoms: _419  and  _420
REMARK  168  A    between atoms: _419  and  _422
REMARK  169  A    between atoms: _422  and  _423
REMARK  170  A    between atoms: _428  and  _429
REMARK  171  A    between atoms: _431  and  _433
REMARK  172  A    between atoms: _433  and  _434
REMARK  173  A    between atoms: _433  and  _436
REMARK  174  A    between atoms: _436  and  _437
REMARK  175  A    between atoms: _442  and  _443
REMARK  176  A    between atoms: _445  and  _447
REMARK  177  A    between atoms: _447  and  _448
REMARK  178  A    between atoms: _447  and  _450
REMARK  179  A    between atoms: _450  and  _451
REMARK  180  A    between atoms: _451  and  _452
REMARK  181  A    between atoms: _452  and  _453
REMARK  182  A    between atoms: _453  and  _454
REMARK  183  A    between atoms: _458  and  _460
REMARK  184  A    between atoms: _460  and  _461
REMARK  185  A    between atoms: _460  and  _463
REMARK  186  A    between atoms: _463  and  _464
REMARK  187  A    between atoms: _467  and  _469
REMARK  188  A    between atoms: _469  and  _470
REMARK  189  A    between atoms: _469  and  _472
REMARK  190  A    between atoms: _475  and  _477
REMARK  191  A    between atoms: _477  and  _478
REMARK  192  A    between atoms: _477  and  _480
REMARK  193  A    between atoms: _480  and  _481
REMARK  194  A    between atoms: _484  and  _486
REMARK  195  A    between atoms: _486  and  _487
REMARK  196  A    between atoms: _486  and  _489
REMARK  197  A    between atoms: _489  and  _490
REMARK  198  A    between atoms: _492  and  _494
REMARK  199  A    between atoms: _494  and  _495
REMARK  200  A    between atoms: _497  and  _499
REMARK  201  A    between atoms: _499  and  _500
REMARK  202  A    between atoms: _499  and  _502
REMARK  203  A    between atoms: _502  and  _503
REMARK  204  A    between atoms: _506  and  _508
REMARK  205  A    between atoms: _508  and  _509
REMARK  206  A    between atoms: _508  and  _511
REMARK  207  A    between atoms: _511  and  _512
REMARK  208  A    between atoms: _515  and  _517
REMARK  209  A    between atoms: _517  and  _518
REMARK  210  A    between atoms: _517  and  _520
REMARK  211  A    between atoms: _520  and  _521
REMARK  212  A    between atoms: _526  and  _528
REMARK  213  A    between atoms: _528  and  _529
REMARK  214  A    between atoms: _528  and  _531
REMARK  215  A    between atoms: _531  and  _532
REMARK  216  A    between atoms: _532  and  _533
REMARK  217  A    between atoms: _533  and  _534
REMARK  218  A    between atoms: _543  and  _545
REMARK  219  A    between atoms: _545  and  _546
REMARK  220  A    between atoms: _545  and  _548
REMARK  221  A    between atoms: _548  and  _549
REMARK  222  A    between atoms: _549  and  _550
REMARK  223  A    between atoms: _550  and  _551
REMARK  224  A    between atoms: _560  and  _562
REMARK  225  A    between atoms: _562  and  _563
REMARK  226  A    between atoms: _562  and  _565
REMARK  227  A    between atoms: _565  and  _566
REMARK  228  A    between atoms: _568  and  _570
REMARK  229  A    between atoms: _570  and  _571
REMARK  230  A    between atoms: _570  and  _573
REMARK  231  A    between atoms: _573  and  _574
REMARK  232  A    between atoms: _574  and  _575
REMARK  233  A    between atoms: _580  and  _582
REMARK  234  A    between atoms: _582  and  _583
REMARK  235  A    between atoms: _582  and  _585
REMARK  236  A    between atoms: _585  and  _586
REMARK  237  A    between atoms: _589  and  _591
REMARK  238  A    between atoms: _591  and  _592
REMARK  239  A    between atoms: _591  and  _594
REMARK  240  A    between atoms: _594  and  _595
REMARK  241  A    between atoms: _598  and  _600
REMARK  242  A    between atoms: _600  and  _601
REMARK  243  A    between atoms: _600  and  _603
REMARK  244  A    between atoms: _606  and  _608
REMARK  245  A    between atoms: _608  and  _609
REMARK  246  A    between atoms: _611  and  _613
REMARK  247  A    between atoms: _613  and  _614
REMARK  248  A    between atoms: _617  and  _619
REMARK  249  A    between atoms: _619  and  _620
REMARK  250  A    between atoms: _619  and  _622
REMARK                            x       y       z     vdW  Elec       q    Type
REMARK                         _______ _______ _______ _____ _____    ______ ____
ROOT
ATOM      1  O   HOH     1      21.265  14.080  28.177  0.00  0.00    +0.000 OA
ENDROOT
TORSDOF 0
