REMARK  Name = ../refined-set-2016/2zz2/2zz2_pocket.pdb
REMARK  219 active torsions:
REMARK  status: ('A' for Active; 'I' for Inactive)
REMARK    1  A    between atoms: _1  and  _3
REMARK    2  A    between atoms: _3  and  _4
REMARK    3  A    between atoms: _3  and  _6
REMARK    4  A    between atoms: _6  and  _7
REMARK    5  A    between atoms: _10  and  _12
REMARK    6  A    between atoms: _12  and  _13
REMARK    7  A    between atoms: _12  and  _15
REMARK    8  A    between atoms: _15  and  _16
REMARK    9  A    between atoms: _19  and  _21
REMARK   10  A    between atoms: _21  and  _22
REMARK   11  A    between atoms: _25  and  _27
REMARK   12  A    between atoms: _27  and  _28
REMARK   13  A    between atoms: _27  and  _30
REMARK   14  A    between atoms: _30  and  _31
REMARK   15  A    between atoms: _31  and  _32
REMARK   16  A    between atoms: _34  and  _36
REMARK   17  A    between atoms: _36  and  _37
REMARK   18  A    between atoms: _36  and  _39
REMARK   19  A    between atoms: _39  and  _40
REMARK   20  A    between atoms: _43  and  _45
REMARK   21  A    between atoms: _45  and  _46
REMARK   22  A    between atoms: _45  and  _48
REMARK   23  A    between atoms: _48  and  _49
REMARK   24  A    between atoms: _49  and  _50
REMARK   25  A    between atoms: _50  and  _51
REMARK   26  A    between atoms: _51  and  _52
REMARK   27  A    between atoms: _56  and  _58
REMARK   28  A    between atoms: _58  and  _59
REMARK   29  A    between atoms: _58  and  _61
REMARK   30  A    between atoms: _61  and  _62
REMARK   31  A    between atoms: _65  and  _67
REMARK   32  A    between atoms: _67  and  _68
REMARK   33  A    between atoms: _70  and  _72
REMARK   34  A    between atoms: _72  and  _73
REMARK   35  A    between atoms: _72  and  _75
REMARK   36  A    between atoms: _75  and  _76
REMARK   37  A    between atoms: _81  and  _82
REMARK   38  A    between atoms: _85  and  _86
REMARK   39  A    between atoms: _91  and  _93
REMARK   40  A    between atoms: _93  and  _94
REMARK   41  A    between atoms: _93  and  _96
REMARK   42  A    between atoms: _96  and  _97
REMARK   43  A    between atoms: _100  and  _102
REMARK   44  A    between atoms: _102  and  _103
REMARK   45  A    between atoms: _102  and  _105
REMARK   46  A    between atoms: _105  and  _106
REMARK   47  A    between atoms: _109  and  _111
REMARK   48  A    between atoms: _111  and  _112
REMARK   49  A    between atoms: _115  and  _117
REMARK   50  A    between atoms: _117  and  _118
REMARK   51  A    between atoms: _117  and  _120
REMARK   52  A    between atoms: _120  and  _121
REMARK   53  A    between atoms: _124  and  _126
REMARK   54  A    between atoms: _126  and  _127
REMARK   55  A    between atoms: _126  and  _129
REMARK   56  A    between atoms: _129  and  _130
REMARK   57  A    between atoms: _136  and  _138
REMARK   58  A    between atoms: _138  and  _139
REMARK   59  A    between atoms: _142  and  _144
REMARK   60  A    between atoms: _144  and  _145
REMARK   61  A    between atoms: _144  and  _147
REMARK   62  A    between atoms: _147  and  _148
REMARK   63  A    between atoms: _151  and  _153
REMARK   64  A    between atoms: _153  and  _154
REMARK   65  A    between atoms: _153  and  _156
REMARK   66  A    between atoms: _159  and  _161
REMARK   67  A    between atoms: _161  and  _162
REMARK   68  A    between atoms: _161  and  _164
REMARK   69  A    between atoms: _164  and  _165
REMARK   70  A    between atoms: _170  and  _172
REMARK   71  A    between atoms: _172  and  _173
REMARK   72  A    between atoms: _172  and  _175
REMARK   73  A    between atoms: _175  and  _176
REMARK   74  A    between atoms: _182  and  _184
REMARK   75  A    between atoms: _184  and  _185
REMARK   76  A    between atoms: _184  and  _187
REMARK   77  A    between atoms: _187  and  _188
REMARK   78  A    between atoms: _191  and  _193
REMARK   79  A    between atoms: _193  and  _194
REMARK   80  A    between atoms: _193  and  _196
REMARK   81  A    between atoms: _196  and  _197
REMARK   82  A    between atoms: _200  and  _202
REMARK   83  A    between atoms: _202  and  _203
REMARK   84  A    between atoms: _202  and  _205
REMARK   85  A    between atoms: _205  and  _206
REMARK   86  A    between atoms: _206  and  _207
REMARK   87  A    between atoms: _210  and  _212
REMARK   88  A    between atoms: _212  and  _213
REMARK   89  A    between atoms: _212  and  _215
REMARK   90  A    between atoms: _215  and  _216
REMARK   91  A    between atoms: _216  and  _217
REMARK   92  A    between atoms: _219  and  _221
REMARK   93  A    between atoms: _221  and  _222
REMARK   94  A    between atoms: _221  and  _224
REMARK   95  A    between atoms: _224  and  _225
REMARK   96  A    between atoms: _227  and  _229
REMARK   97  A    between atoms: _229  and  _230
REMARK   98  A    between atoms: _229  and  _232
REMARK   99  A    between atoms: _232  and  _233
REMARK  100  A    between atoms: _238  and  _240
REMARK  101  A    between atoms: _240  and  _241
REMARK  102  A    between atoms: _244  and  _246
REMARK  103  A    between atoms: _246  and  _247
REMARK  104  A    between atoms: _246  and  _249
REMARK  105  A    between atoms: _249  and  _250
REMARK  106  A    between atoms: _253  and  _255
REMARK  107  A    between atoms: _255  and  _256
REMARK  108  A    between atoms: _255  and  _258
REMARK  109  A    between atoms: _261  and  _263
REMARK  110  A    between atoms: _263  and  _264
REMARK  111  A    between atoms: _267  and  _268
REMARK  112  A    between atoms: _273  and  _275
REMARK  113  A    between atoms: _275  and  _276
REMARK  114  A    between atoms: _275  and  _278
REMARK  115  A    between atoms: _278  and  _279
REMARK  116  A    between atoms: _281  and  _283
REMARK  117  A    between atoms: _283  and  _284
REMARK  118  A    between atoms: _283  and  _286
REMARK  119  A    between atoms: _286  and  _287
REMARK  120  A    between atoms: _290  and  _292
REMARK  121  A    between atoms: _292  and  _293
REMARK  122  A    between atoms: _292  and  _295
REMARK  123  A    between atoms: _295  and  _296
REMARK  124  A    between atoms: _296  and  _297
REMARK  125  A    between atoms: _297  and  _298
REMARK  126  A    between atoms: _307  and  _309
REMARK  127  A    between atoms: _309  and  _310
REMARK  128  A    between atoms: _309  and  _312
REMARK  129  A    between atoms: _312  and  _313
REMARK  130  A    between atoms: _316  and  _318
REMARK  131  A    between atoms: _318  and  _319
REMARK  132  A    between atoms: _318  and  _321
REMARK  133  A    between atoms: _321  and  _322
REMARK  134  A    between atoms: _325  and  _326
REMARK  135  A    between atoms: _331  and  _333
REMARK  136  A    between atoms: _333  and  _334
REMARK  137  A    between atoms: _336  and  _338
REMARK  138  A    between atoms: _338  and  _339
REMARK  139  A    between atoms: _338  and  _341
REMARK  140  A    between atoms: _344  and  _346
REMARK  141  A    between atoms: _346  and  _347
REMARK  142  A    between atoms: _349  and  _351
REMARK  143  A    between atoms: _351  and  _352
REMARK  144  A    between atoms: _355  and  _357
REMARK  145  A    between atoms: _357  and  _358
REMARK  146  A    between atoms: _357  and  _360
REMARK  147  A    between atoms: _360  and  _361
REMARK  148  A    between atoms: _361  and  _362
REMARK  149  A    between atoms: _367  and  _369
REMARK  150  A    between atoms: _369  and  _370
REMARK  151  A    between atoms: _372  and  _374
REMARK  152  A    between atoms: _374  and  _375
REMARK  153  A    between atoms: _377  and  _379
REMARK  154  A    between atoms: _379  and  _380
REMARK  155  A    between atoms: _379  and  _382
REMARK  156  A    between atoms: _382  and  _383
REMARK  157  A    between atoms: _386  and  _388
REMARK  158  A    between atoms: _388  and  _389
REMARK  159  A    between atoms: _388  and  _391
REMARK  160  A    between atoms: _394  and  _396
REMARK  161  A    between atoms: _396  and  _397
REMARK  162  A    between atoms: _399  and  _401
REMARK  163  A    between atoms: _401  and  _402
REMARK  164  A    between atoms: _401  and  _404
REMARK  165  A    between atoms: _404  and  _405
REMARK  166  A    between atoms: _405  and  _406
REMARK  167  A    between atoms: _406  and  _407
REMARK  168  A    between atoms: _416  and  _418
REMARK  169  A    between atoms: _418  and  _419
REMARK  170  A    between atoms: _418  and  _421
REMARK  171  A    between atoms: _421  and  _422
REMARK  172  A    between atoms: _424  and  _426
REMARK  173  A    between atoms: _426  and  _427
REMARK  174  A    between atoms: _426  and  _429
REMARK  175  A    between atoms: _429  and  _430
REMARK  176  A    between atoms: _433  and  _435
REMARK  177  A    between atoms: _435  and  _436
REMARK  178  A    between atoms: _435  and  _438
REMARK  179  A    between atoms: _438  and  _439
REMARK  180  A    between atoms: _444  and  _445
REMARK  181  A    between atoms: _447  and  _449
REMARK  182  A    between atoms: _449  and  _450
REMARK  183  A    between atoms: _449  and  _452
REMARK  184  A    between atoms: _452  and  _453
REMARK  185  A    between atoms: _456  and  _458
REMARK  186  A    between atoms: _458  and  _459
REMARK  187  A    between atoms: _462  and  _464
REMARK  188  A    between atoms: _464  and  _465
REMARK  189  A    between atoms: _464  and  _467
REMARK  190  A    between atoms: _467  and  _468
REMARK  191  A    between atoms: _471  and  _473
REMARK  192  A    between atoms: _473  and  _474
REMARK  193  A    between atoms: _473  and  _476
REMARK  194  A    between atoms: _476  and  _477
REMARK  195  A    between atoms: _481  and  _482
REMARK  196  A    between atoms: _487  and  _489
REMARK  197  A    between atoms: _489  and  _490
REMARK  198  A    between atoms: _489  and  _492
REMARK  199  A    between atoms: _492  and  _493
REMARK  200  A    between atoms: _493  and  _494
REMARK  201  A    between atoms: _497  and  _499
REMARK  202  A    between atoms: _499  and  _500
REMARK  203  A    between atoms: _499  and  _502
REMARK  204  A    between atoms: _502  and  _503
REMARK  205  A    between atoms: _506  and  _508
REMARK  206  A    between atoms: _508  and  _509
REMARK  207  A    between atoms: _508  and  _511
REMARK  208  A    between atoms: _511  and  _512
REMARK  209  A    between atoms: _517  and  _519
REMARK  210  A    between atoms: _519  and  _520
REMARK  211  A    between atoms: _519  and  _522
REMARK  212  A    between atoms: _522  and  _523
REMARK  213  A    between atoms: _523  and  _524
REMARK  214  A    between atoms: _524  and  _525
REMARK  215  A    between atoms: _525  and  _526
REMARK  216  A    between atoms: _530  and  _532
REMARK  217  A    between atoms: _532  and  _533
REMARK  218  A    between atoms: _532  and  _535
REMARK  219  A    between atoms: _535  and  _536
REMARK                            x       y       z     vdW  Elec       q    Type
REMARK                         _______ _______ _______ _____ _____    ______ ____
ROOT
ATOM      1  CA  ALA A   3      19.983 -20.748  10.509  0.00  0.00    +0.149 C 
ATOM      2  CB  ALA A   3      21.285 -19.917  10.604  0.00  0.00    +0.031 C 
ENDROOT
BRANCH   1   3
ATOM      3  C   ALA A   3      18.766 -19.808  10.449  0.00  0.00    +0.241 C 
ATOM      4  N   MET A   4      17.743 -20.174  11.198  0.00  0.00    -0.297 N 
ATOM      5  H   MET A   4      17.813 -21.019  11.800  0.00  0.00    +0.150 HD
ATOM      6  O   ALA A   3      18.800 -18.735   9.788  0.00  0.00    -0.273 OA
BRANCH   4   7
ATOM      7  CA  MET A   4      16.510 -19.387  11.178  0.00  0.00    +0.149 C 
BRANCH   7   8
ATOM      8  C   MET A   4      16.507 -18.309  12.253  0.00  0.00    +0.241 C 
ATOM      9  O   MET A   4      15.978 -18.518  13.389  0.00  0.00    -0.273 OA
ATOM     10  N   ASP A   5      17.089 -17.143  11.904  0.00  0.00    -0.298 N 
ATOM     11  H   ASP A   5      17.455 -17.033  10.937  0.00  0.00    +0.150 HD
BRANCH  10  12
ATOM     12  CA  ASP A   5      17.224 -16.019  12.849  0.00  0.00    +0.148 C 
BRANCH  12  13
ATOM     13  C   ASP A   5      16.303 -14.822  12.546  0.00  0.00    +0.227 C 
ATOM     14  O   ASP A   5      16.515 -13.721  13.068  0.00  0.00    -0.286 OA
ENDBRANCH  12  13
BRANCH  12  15
ATOM     15  CB  ASP A   5      18.693 -15.553  12.855  0.00  0.00    +0.142 C 
BRANCH  15  16
ATOM     16  CG  ASP A   5      19.637 -16.640  13.319  0.00  0.00    +0.367 C 
ATOM     17  OD2 ASP A   5      19.351 -17.320  14.320  0.00  0.00    -0.246 OA
ATOM     18  OD1 ASP A   5      20.709 -16.795  12.668  0.00  0.00    -0.246 OA
ENDBRANCH  15  16
ENDBRANCH  12  15
ENDBRANCH  10  12
ENDBRANCH   7   8
BRANCH   7  19
ATOM     19  CB  MET A   4      15.286 -20.317  11.237  0.00  0.00    +0.041 C 
BRANCH  19  20
ATOM     20  CG  MET A   4      13.973 -19.592  11.254  0.00  0.00    +0.060 C 
BRANCH  20  21
ATOM     21  SD  MET A   4      13.841 -18.117  10.199  0.00  0.00    -0.139 S 
ATOM     22  CE  MET A   4      14.166 -18.804   8.569  0.00  0.00    +0.069 C 
ENDBRANCH  20  21
ENDBRANCH  19  20
ENDBRANCH   7  19
ENDBRANCH   4   7
ENDBRANCH   1   3
BRANCH   1  25
ATOM     23  C   LEU A   2      19.316 -22.673   9.175  0.00  0.00    +0.241 C 
ATOM     24  O   LEU A   2      18.818 -23.229  10.145  0.00  0.00    -0.273 OA
ATOM     25  N   ALA A   3      19.927 -21.496   9.252  0.00  0.00    -0.297 N 
ATOM     26  H   ALA A   3      20.375 -21.098   8.402  0.00  0.00    +0.150 HD
BRANCH  23  27
ATOM     27  CA  LEU A   2      19.161 -23.297   7.783  0.00  0.00    +0.149 C 
BRANCH  27  29
ATOM     28  C   ILE A   1      20.954 -24.934   7.694  0.00  0.00    +0.238 C 
ATOM     29  N   LEU A   2      19.661 -24.675   7.833  0.00  0.00    -0.297 N 
ATOM     30  H   LEU A   2      18.993 -25.459   7.979  0.00  0.00    +0.150 HD
ATOM     31  O   ILE A   1      21.823 -24.052   7.539  0.00  0.00    -0.274 OA
BRANCH  28  32
ATOM     32  CA  ILE A   1      21.348 -26.405   7.740  0.00  0.00    +0.145 C 
BRANCH  32  33
ATOM     33  CB  ILE A   1      22.204 -26.626   9.040  0.00  0.00    +0.025 C 
ATOM     34  CG2 ILE A   1      21.446 -26.165  10.307  0.00  0.00    +0.002 C 
BRANCH  33  35
ATOM     35  CG1 ILE A   1      22.616 -28.100   9.127  0.00  0.00    +0.002 C 
ATOM     36  CD1 ILE A   1      23.703 -28.399  10.157  0.00  0.00    +0.000 C 
ENDBRANCH  33  35
ENDBRANCH  32  33
BRANCH  32  37
ATOM     37  N   ILE A   1      22.161 -26.690   6.546  0.00  0.00    -0.238 NA
ATOM     38  H   ILE A   1      23.082 -26.216   6.451  0.00  0.00    +0.142 HD
ENDBRANCH  32  37
ENDBRANCH  28  32
ENDBRANCH  27  29
BRANCH  27  39
ATOM     39  CB  LEU A   2      17.685 -23.330   7.378  0.00  0.00    +0.029 C 
BRANCH  39  40
ATOM     40  CG  LEU A   2      16.926 -22.005   7.498  0.00  0.00    +0.002 C 
ATOM     41  CD2 LEU A   2      15.424 -22.274   7.307  0.00  0.00    +0.000 C 
ATOM     42  CD1 LEU A   2      17.407 -20.866   6.520  0.00  0.00    +0.000 C 
ENDBRANCH  39  40
ENDBRANCH  27  39
ENDBRANCH  23  27
ENDBRANCH   1  25
TORSDOF 19
REMARK  Name = ../refined-set-2016/2zz2/2zz2_pocket.pdb
REMARK  219 active torsions:
REMARK  status: ('A' for Active; 'I' for Inactive)
REMARK    1  A    between atoms: _1  and  _3
REMARK    2  A    between atoms: _3  and  _4
REMARK    3  A    between atoms: _3  and  _6
REMARK    4  A    between atoms: _6  and  _7
REMARK    5  A    between atoms: _10  and  _12
REMARK    6  A    between atoms: _12  and  _13
REMARK    7  A    between atoms: _12  and  _15
REMARK    8  A    between atoms: _15  and  _16
REMARK    9  A    between atoms: _19  and  _21
REMARK   10  A    between atoms: _21  and  _22
REMARK   11  A    between atoms: _25  and  _27
REMARK   12  A    between atoms: _27  and  _28
REMARK   13  A    between atoms: _27  and  _30
REMARK   14  A    between atoms: _30  and  _31
REMARK   15  A    between atoms: _31  and  _32
REMARK   16  A    between atoms: _34  and  _36
REMARK   17  A    between atoms: _36  and  _37
REMARK   18  A    between atoms: _36  and  _39
REMARK   19  A    between atoms: _39  and  _40
REMARK   20  A    between atoms: _43  and  _45
REMARK   21  A    between atoms: _45  and  _46
REMARK   22  A    between atoms: _45  and  _48
REMARK   23  A    between atoms: _48  and  _49
REMARK   24  A    between atoms: _49  and  _50
REMARK   25  A    between atoms: _50  and  _51
REMARK   26  A    between atoms: _51  and  _52
REMARK   27  A    between atoms: _56  and  _58
REMARK   28  A    between atoms: _58  and  _59
REMARK   29  A    between atoms: _58  and  _61
REMARK   30  A    between atoms: _61  and  _62
REMARK   31  A    between atoms: _65  and  _67
REMARK   32  A    between atoms: _67  and  _68
REMARK   33  A    between atoms: _70  and  _72
REMARK   34  A    between atoms: _72  and  _73
REMARK   35  A    between atoms: _72  and  _75
REMARK   36  A    between atoms: _75  and  _76
REMARK   37  A    between atoms: _81  and  _82
REMARK   38  A    between atoms: _85  and  _86
REMARK   39  A    between atoms: _91  and  _93
REMARK   40  A    between atoms: _93  and  _94
REMARK   41  A    between atoms: _93  and  _96
REMARK   42  A    between atoms: _96  and  _97
REMARK   43  A    between atoms: _100  and  _102
REMARK   44  A    between atoms: _102  and  _103
REMARK   45  A    between atoms: _102  and  _105
REMARK   46  A    between atoms: _105  and  _106
REMARK   47  A    between atoms: _109  and  _111
REMARK   48  A    between atoms: _111  and  _112
REMARK   49  A    between atoms: _115  and  _117
REMARK   50  A    between atoms: _117  and  _118
REMARK   51  A    between atoms: _117  and  _120
REMARK   52  A    between atoms: _120  and  _121
REMARK   53  A    between atoms: _124  and  _126
REMARK   54  A    between atoms: _126  and  _127
REMARK   55  A    between atoms: _126  and  _129
REMARK   56  A    between atoms: _129  and  _130
REMARK   57  A    between atoms: _136  and  _138
REMARK   58  A    between atoms: _138  and  _139
REMARK   59  A    between atoms: _142  and  _144
REMARK   60  A    between atoms: _144  and  _145
REMARK   61  A    between atoms: _144  and  _147
REMARK   62  A    between atoms: _147  and  _148
REMARK   63  A    between atoms: _151  and  _153
REMARK   64  A    between atoms: _153  and  _154
REMARK   65  A    between atoms: _153  and  _156
REMARK   66  A    between atoms: _159  and  _161
REMARK   67  A    between atoms: _161  and  _162
REMARK   68  A    between atoms: _161  and  _164
REMARK   69  A    between atoms: _164  and  _165
REMARK   70  A    between atoms: _170  and  _172
REMARK   71  A    between atoms: _172  and  _173
REMARK   72  A    between atoms: _172  and  _175
REMARK   73  A    between atoms: _175  and  _176
REMARK   74  A    between atoms: _182  and  _184
REMARK   75  A    between atoms: _184  and  _185
REMARK   76  A    between atoms: _184  and  _187
REMARK   77  A    between atoms: _187  and  _188
REMARK   78  A    between atoms: _191  and  _193
REMARK   79  A    between atoms: _193  and  _194
REMARK   80  A    between atoms: _193  and  _196
REMARK   81  A    between atoms: _196  and  _197
REMARK   82  A    between atoms: _200  and  _202
REMARK   83  A    between atoms: _202  and  _203
REMARK   84  A    between atoms: _202  and  _205
REMARK   85  A    between atoms: _205  and  _206
REMARK   86  A    between atoms: _206  and  _207
REMARK   87  A    between atoms: _210  and  _212
REMARK   88  A    between atoms: _212  and  _213
REMARK   89  A    between atoms: _212  and  _215
REMARK   90  A    between atoms: _215  and  _216
REMARK   91  A    between atoms: _216  and  _217
REMARK   92  A    between atoms: _219  and  _221
REMARK   93  A    between atoms: _221  and  _222
REMARK   94  A    between atoms: _221  and  _224
REMARK   95  A    between atoms: _224  and  _225
REMARK   96  A    between atoms: _227  and  _229
REMARK   97  A    between atoms: _229  and  _230
REMARK   98  A    between atoms: _229  and  _232
REMARK   99  A    between atoms: _232  and  _233
REMARK  100  A    between atoms: _238  and  _240
REMARK  101  A    between atoms: _240  and  _241
REMARK  102  A    between atoms: _244  and  _246
REMARK  103  A    between atoms: _246  and  _247
REMARK  104  A    between atoms: _246  and  _249
REMARK  105  A    between atoms: _249  and  _250
REMARK  106  A    between atoms: _253  and  _255
REMARK  107  A    between atoms: _255  and  _256
REMARK  108  A    between atoms: _255  and  _258
REMARK  109  A    between atoms: _261  and  _263
REMARK  110  A    between atoms: _263  and  _264
REMARK  111  A    between atoms: _267  and  _268
REMARK  112  A    between atoms: _273  and  _275
REMARK  113  A    between atoms: _275  and  _276
REMARK  114  A    between atoms: _275  and  _278
REMARK  115  A    between atoms: _278  and  _279
REMARK  116  A    between atoms: _281  and  _283
REMARK  117  A    between atoms: _283  and  _284
REMARK  118  A    between atoms: _283  and  _286
REMARK  119  A    between atoms: _286  and  _287
REMARK  120  A    between atoms: _290  and  _292
REMARK  121  A    between atoms: _292  and  _293
REMARK  122  A    between atoms: _292  and  _295
REMARK  123  A    between atoms: _295  and  _296
REMARK  124  A    between atoms: _296  and  _297
REMARK  125  A    between atoms: _297  and  _298
REMARK  126  A    between atoms: _307  and  _309
REMARK  127  A    between atoms: _309  and  _310
REMARK  128  A    between atoms: _309  and  _312
REMARK  129  A    between atoms: _312  and  _313
REMARK  130  A    between atoms: _316  and  _318
REMARK  131  A    between atoms: _318  and  _319
REMARK  132  A    between atoms: _318  and  _321
REMARK  133  A    between atoms: _321  and  _322
REMARK  134  A    between atoms: _325  and  _326
REMARK  135  A    between atoms: _331  and  _333
REMARK  136  A    between atoms: _333  and  _334
REMARK  137  A    between atoms: _336  and  _338
REMARK  138  A    between atoms: _338  and  _339
REMARK  139  A    between atoms: _338  and  _341
REMARK  140  A    between atoms: _344  and  _346
REMARK  141  A    between atoms: _346  and  _347
REMARK  142  A    between atoms: _349  and  _351
REMARK  143  A    between atoms: _351  and  _352
REMARK  144  A    between atoms: _355  and  _357
REMARK  145  A    between atoms: _357  and  _358
REMARK  146  A    between atoms: _357  and  _360
REMARK  147  A    between atoms: _360  and  _361
REMARK  148  A    between atoms: _361  and  _362
REMARK  149  A    between atoms: _367  and  _369
REMARK  150  A    between atoms: _369  and  _370
REMARK  151  A    between atoms: _372  and  _374
REMARK  152  A    between atoms: _374  and  _375
REMARK  153  A    between atoms: _377  and  _379
REMARK  154  A    between atoms: _379  and  _380
REMARK  155  A    between atoms: _379  and  _382
REMARK  156  A    between atoms: _382  and  _383
REMARK  157  A    between atoms: _386  and  _388
REMARK  158  A    between atoms: _388  and  _389
REMARK  159  A    between atoms: _388  and  _391
REMARK  160  A    between atoms: _394  and  _396
REMARK  161  A    between atoms: _396  and  _397
REMARK  162  A    between atoms: _399  and  _401
REMARK  163  A    between atoms: _401  and  _402
REMARK  164  A    between atoms: _401  and  _404
REMARK  165  A    between atoms: _404  and  _405
REMARK  166  A    between atoms: _405  and  _406
REMARK  167  A    between atoms: _406  and  _407
REMARK  168  A    between atoms: _416  and  _418
REMARK  169  A    between atoms: _418  and  _419
REMARK  170  A    between atoms: _418  and  _421
REMARK  171  A    between atoms: _421  and  _422
REMARK  172  A    between atoms: _424  and  _426
REMARK  173  A    between atoms: _426  and  _427
REMARK  174  A    between atoms: _426  and  _429
REMARK  175  A    between atoms: _429  and  _430
REMARK  176  A    between atoms: _433  and  _435
REMARK  177  A    between atoms: _435  and  _436
REMARK  178  A    between atoms: _435  and  _438
REMARK  179  A    between atoms: _438  and  _439
REMARK  180  A    between atoms: _444  and  _445
REMARK  181  A    between atoms: _447  and  _449
REMARK  182  A    between atoms: _449  and  _450
REMARK  183  A    between atoms: _449  and  _452
REMARK  184  A    between atoms: _452  and  _453
REMARK  185  A    between atoms: _456  and  _458
REMARK  186  A    between atoms: _458  and  _459
REMARK  187  A    between atoms: _462  and  _464
REMARK  188  A    between atoms: _464  and  _465
REMARK  189  A    between atoms: _464  and  _467
REMARK  190  A    between atoms: _467  and  _468
REMARK  191  A    between atoms: _471  and  _473
REMARK  192  A    between atoms: _473  and  _474
REMARK  193  A    between atoms: _473  and  _476
REMARK  194  A    between atoms: _476  and  _477
REMARK  195  A    between atoms: _481  and  _482
REMARK  196  A    between atoms: _487  and  _489
REMARK  197  A    between atoms: _489  and  _490
REMARK  198  A    between atoms: _489  and  _492
REMARK  199  A    between atoms: _492  and  _493
REMARK  200  A    between atoms: _493  and  _494
REMARK  201  A    between atoms: _497  and  _499
REMARK  202  A    between atoms: _499  and  _500
REMARK  203  A    between atoms: _499  and  _502
REMARK  204  A    between atoms: _502  and  _503
REMARK  205  A    between atoms: _506  and  _508
REMARK  206  A    between atoms: _508  and  _509
REMARK  207  A    between atoms: _508  and  _511
REMARK  208  A    between atoms: _511  and  _512
REMARK  209  A    between atoms: _517  and  _519
REMARK  210  A    between atoms: _519  and  _520
REMARK  211  A    between atoms: _519  and  _522
REMARK  212  A    between atoms: _522  and  _523
REMARK  213  A    between atoms: _523  and  _524
REMARK  214  A    between atoms: _524  and  _525
REMARK  215  A    between atoms: _525  and  _526
REMARK  216  A    between atoms: _530  and  _532
REMARK  217  A    between atoms: _532  and  _533
REMARK  218  A    between atoms: _532  and  _535
REMARK  219  A    between atoms: _535  and  _536
REMARK                            x       y       z     vdW  Elec       q    Type
REMARK                         _______ _______ _______ _____ _____    ______ ____
ROOT
ATOM      1  C   GLY A   3      17.843 -18.607  19.043  0.00  0.00    +0.243 C 
ATOM      2  N   TYR A   4      18.558 -17.828  19.857  0.00  0.00    -0.297 N 
ATOM      3  H   TYR A   4      19.596 -17.896  19.879  0.00  0.00    +0.150 HD
ATOM      4  O   GLY A   3      16.593 -18.591  19.001  0.00  0.00    -0.273 OA
ENDROOT
BRANCH   1   5
ATOM      5  CA  GLY A   3      18.702 -19.548  18.215  0.00  0.00    +0.176 C 
BRANCH   5   8
ATOM      6  C   ILE A   2      17.803 -21.518  17.122  0.00  0.00    +0.241 C 
ATOM      7  O   ILE A   2      18.289 -22.289  17.940  0.00  0.00    -0.273 OA
ATOM      8  N   GLY A   3      17.930 -20.197  17.173  0.00  0.00    -0.295 N 
ATOM      9  H   GLY A   3      17.465 -19.614  16.448  0.00  0.00    +0.150 HD
BRANCH   6  10
ATOM     10  CA  ILE A   2      17.017 -22.075  15.946  0.00  0.00    +0.148 C 
BRANCH  10  12
ATOM     11  C   LYS A   1      18.334 -23.061  14.129  0.00  0.00    +0.238 C 
ATOM     12  N   ILE A   2      17.810 -23.162  15.361  0.00  0.00    -0.297 N 
ATOM     13  H   ILE A   2      17.970 -24.029  15.912  0.00  0.00    +0.150 HD
ATOM     14  O   LYS A   1      18.152 -22.065  13.369  0.00  0.00    -0.274 OA
BRANCH  11  15
ATOM     15  CA  LYS A   1      19.179 -24.217  13.634  0.00  0.00    +0.145 C 
BRANCH  15  16
ATOM     16  N   LYS A   1      18.526 -24.747  12.429  0.00  0.00    -0.238 NA
ATOM     17  H   LYS A   1      18.739 -24.314  11.508  0.00  0.00    +0.142 HD
ENDBRANCH  15  16
BRANCH  15  18
ATOM     18  CB  LYS A   1      20.584 -23.723  13.300  0.00  0.00    +0.026 C 
BRANCH  18  19
ATOM     19  CG  LYS A   1      21.346 -23.342  14.590  0.00  0.00    -0.000 C 
BRANCH  19  20
ATOM     20  CD  LYS A   1      22.800 -23.002  14.257  0.00  0.00    -0.024 C 
BRANCH  20  21
ATOM     21  CE  LYS A   1      22.976 -21.612  13.639  0.00  0.00    -0.086 C 
BRANCH  21  22
ATOM     22  NZ  LYS A   1      22.579 -20.516  14.621  0.00  0.00    +0.380 N 
ATOM     23  HZ1 LYS A   1      23.176 -20.580  15.470  0.00  0.00    -0.089 HD
ATOM     24  HZ2 LYS A   1      21.581 -20.636  14.888  0.00  0.00    -0.089 HD
ATOM     25  HZ3 LYS A   1      22.709 -19.587  14.173  0.00  0.00    -0.089 HD
ENDBRANCH  21  22
ENDBRANCH  20  21
ENDBRANCH  19  20
ENDBRANCH  18  19
ENDBRANCH  15  18
ENDBRANCH  11  15
ENDBRANCH  10  12
BRANCH  10  26
ATOM     26  CB  ILE A   2      15.650 -22.609  16.424  0.00  0.00    +0.027 C 
ATOM     27  CG2 ILE A   2      14.901 -21.486  17.218  0.00  0.00    +0.002 C 
BRANCH  26  28
ATOM     28  CG1 ILE A   2      14.843 -23.129  15.204  0.00  0.00    +0.002 C 
ATOM     29  CD1 ILE A   2      13.381 -23.542  15.572  0.00  0.00    +0.000 C 
ENDBRANCH  26  28
ENDBRANCH  10  26
ENDBRANCH   6  10
ENDBRANCH   5   8
ENDBRANCH   1   5
BRANCH   2  30
ATOM     30  CA  TYR A   4      17.859 -16.882  20.714  0.00  0.00    +0.153 C 
BRANCH  30  31
ATOM     31  C   TYR A   4      17.082 -15.755  20.005  0.00  0.00    +0.244 C 
ATOM     32  O   TYR A   4      16.068 -15.300  20.541  0.00  0.00    -0.273 OA
ATOM     33  N   PRO A   5      17.541 -15.261  18.849  0.00  0.00    -0.272 N 
ATOM     34  CA  PRO A   5      16.732 -14.200  18.180  0.00  0.00    +0.152 C 
ATOM     35  CB  PRO A   5      17.442 -14.016  16.840  0.00  0.00    +0.031 C 
ATOM     36  CG  PRO A   5      18.936 -14.314  17.171  0.00  0.00    +0.024 C 
ATOM     37  CD  PRO A   5      18.813 -15.532  18.143  0.00  0.00    +0.094 C 
BRANCH  34  38
ATOM     38  C   PRO A   5      15.255 -14.657  18.007  0.00  0.00    +0.241 C 
ATOM     39  O   PRO A   5      14.317 -13.898  18.349  0.00  0.00    -0.273 OA
ATOM     40  N   LEU A   6      15.052 -15.901  17.564  0.00  0.00    -0.298 N 
ATOM     41  H   LEU A   6      15.860 -16.526  17.368  0.00  0.00    +0.150 HD
BRANCH  40  42
ATOM     42  CA  LEU A   6      13.668 -16.382  17.355  0.00  0.00    +0.137 C 
BRANCH  42  43
ATOM     43  C   LEU A   6      13.054 -16.786  18.686  0.00  0.00    +0.227 C 
ATOM     44  O   LEU A   6      11.897 -16.417  18.978  0.00  0.00    -0.286 OA
ENDBRANCH  42  43
BRANCH  42  45
ATOM     45  CB  LEU A   6      13.658 -17.557  16.356  0.00  0.00    +0.028 C 
BRANCH  45  46
ATOM     46  CG  LEU A   6      12.208 -18.036  16.027  0.00  0.00    +0.002 C 
ATOM     47  CD2 LEU A   6      11.177 -16.912  15.588  0.00  0.00    +0.000 C 
ATOM     48  CD1 LEU A   6      12.345 -19.122  14.969  0.00  0.00    +0.000 C 
ENDBRANCH  45  46
ENDBRANCH  42  45
ENDBRANCH  40  42
ENDBRANCH  34  38
ENDBRANCH  30  31
BRANCH  30  49
ATOM     49  CB  TYR A   4      18.814 -16.349  21.773  0.00  0.00    +0.055 C 
BRANCH  49  50
ATOM     50  CG  TYR A   4      19.148 -17.360  22.864  0.00  0.00    -0.020 A 
ATOM     51  CD2 TYR A   4      18.119 -18.078  23.527  0.00  0.00    -0.001 A 
ATOM     52  CE2 TYR A   4      18.371 -18.958  24.516  0.00  0.00    +0.036 A 
ATOM     53  CZ  TYR A   4      19.692 -19.146  24.965  0.00  0.00    +0.134 A 
ATOM     54  CE1 TYR A   4      20.748 -18.482  24.333  0.00  0.00    +0.036 A 
ATOM     55  CD1 TYR A   4      20.448 -17.552  23.286  0.00  0.00    -0.001 A 
BRANCH  53  56
ATOM     56  OH  TYR A   4      19.882 -20.047  26.001  0.00  0.00    -0.506 OA
ATOM     57  HH  TYR A   4      20.845 -20.092  26.226  0.00  0.00    +0.292 HD
ENDBRANCH  53  56
ENDBRANCH  49  50
ENDBRANCH  30  49
ENDBRANCH   2  30
TORSDOF 23
REMARK  Name = ../refined-set-2016/2zz2/2zz2_pocket.pdb
REMARK  219 active torsions:
REMARK  status: ('A' for Active; 'I' for Inactive)
REMARK    1  A    between atoms: _1  and  _3
REMARK    2  A    between atoms: _3  and  _4
REMARK    3  A    between atoms: _3  and  _6
REMARK    4  A    between atoms: _6  and  _7
REMARK    5  A    between atoms: _10  and  _12
REMARK    6  A    between atoms: _12  and  _13
REMARK    7  A    between atoms: _12  and  _15
REMARK    8  A    between atoms: _15  and  _16
REMARK    9  A    between atoms: _19  and  _21
REMARK   10  A    between atoms: _21  and  _22
REMARK   11  A    between atoms: _25  and  _27
REMARK   12  A    between atoms: _27  and  _28
REMARK   13  A    between atoms: _27  and  _30
REMARK   14  A    between atoms: _30  and  _31
REMARK   15  A    between atoms: _31  and  _32
REMARK   16  A    between atoms: _34  and  _36
REMARK   17  A    between atoms: _36  and  _37
REMARK   18  A    between atoms: _36  and  _39
REMARK   19  A    between atoms: _39  and  _40
REMARK   20  A    between atoms: _43  and  _45
REMARK   21  A    between atoms: _45  and  _46
REMARK   22  A    between atoms: _45  and  _48
REMARK   23  A    between atoms: _48  and  _49
REMARK   24  A    between atoms: _49  and  _50
REMARK   25  A    between atoms: _50  and  _51
REMARK   26  A    between atoms: _51  and  _52
REMARK   27  A    between atoms: _56  and  _58
REMARK   28  A    between atoms: _58  and  _59
REMARK   29  A    between atoms: _58  and  _61
REMARK   30  A    between atoms: _61  and  _62
REMARK   31  A    between atoms: _65  and  _67
REMARK   32  A    between atoms: _67  and  _68
REMARK   33  A    between atoms: _70  and  _72
REMARK   34  A    between atoms: _72  and  _73
REMARK   35  A    between atoms: _72  and  _75
REMARK   36  A    between atoms: _75  and  _76
REMARK   37  A    between atoms: _81  and  _82
REMARK   38  A    between atoms: _85  and  _86
REMARK   39  A    between atoms: _91  and  _93
REMARK   40  A    between atoms: _93  and  _94
REMARK   41  A    between atoms: _93  and  _96
REMARK   42  A    between atoms: _96  and  _97
REMARK   43  A    between atoms: _100  and  _102
REMARK   44  A    between atoms: _102  and  _103
REMARK   45  A    between atoms: _102  and  _105
REMARK   46  A    between atoms: _105  and  _106
REMARK   47  A    between atoms: _109  and  _111
REMARK   48  A    between atoms: _111  and  _112
REMARK   49  A    between atoms: _115  and  _117
REMARK   50  A    between atoms: _117  and  _118
REMARK   51  A    between atoms: _117  and  _120
REMARK   52  A    between atoms: _120  and  _121
REMARK   53  A    between atoms: _124  and  _126
REMARK   54  A    between atoms: _126  and  _127
REMARK   55  A    between atoms: _126  and  _129
REMARK   56  A    between atoms: _129  and  _130
REMARK   57  A    between atoms: _136  and  _138
REMARK   58  A    between atoms: _138  and  _139
REMARK   59  A    between atoms: _142  and  _144
REMARK   60  A    between atoms: _144  and  _145
REMARK   61  A    between atoms: _144  and  _147
REMARK   62  A    between atoms: _147  and  _148
REMARK   63  A    between atoms: _151  and  _153
REMARK   64  A    between atoms: _153  and  _154
REMARK   65  A    between atoms: _153  and  _156
REMARK   66  A    between atoms: _159  and  _161
REMARK   67  A    between atoms: _161  and  _162
REMARK   68  A    between atoms: _161  and  _164
REMARK   69  A    between atoms: _164  and  _165
REMARK   70  A    between atoms: _170  and  _172
REMARK   71  A    between atoms: _172  and  _173
REMARK   72  A    between atoms: _172  and  _175
REMARK   73  A    between atoms: _175  and  _176
REMARK   74  A    between atoms: _182  and  _184
REMARK   75  A    between atoms: _184  and  _185
REMARK   76  A    between atoms: _184  and  _187
REMARK   77  A    between atoms: _187  and  _188
REMARK   78  A    between atoms: _191  and  _193
REMARK   79  A    between atoms: _193  and  _194
REMARK   80  A    between atoms: _193  and  _196
REMARK   81  A    between atoms: _196  and  _197
REMARK   82  A    between atoms: _200  and  _202
REMARK   83  A    between atoms: _202  and  _203
REMARK   84  A    between atoms: _202  and  _205
REMARK   85  A    between atoms: _205  and  _206
REMARK   86  A    between atoms: _206  and  _207
REMARK   87  A    between atoms: _210  and  _212
REMARK   88  A    between atoms: _212  and  _213
REMARK   89  A    between atoms: _212  and  _215
REMARK   90  A    between atoms: _215  and  _216
REMARK   91  A    between atoms: _216  and  _217
REMARK   92  A    between atoms: _219  and  _221
REMARK   93  A    between atoms: _221  and  _222
REMARK   94  A    between atoms: _221  and  _224
REMARK   95  A    between atoms: _224  and  _225
REMARK   96  A    between atoms: _227  and  _229
REMARK   97  A    between atoms: _229  and  _230
REMARK   98  A    between atoms: _229  and  _232
REMARK   99  A    between atoms: _232  and  _233
REMARK  100  A    between atoms: _238  and  _240
REMARK  101  A    between atoms: _240  and  _241
REMARK  102  A    between atoms: _244  and  _246
REMARK  103  A    between atoms: _246  and  _247
REMARK  104  A    between atoms: _246  and  _249
REMARK  105  A    between atoms: _249  and  _250
REMARK  106  A    between atoms: _253  and  _255
REMARK  107  A    between atoms: _255  and  _256
REMARK  108  A    between atoms: _255  and  _258
REMARK  109  A    between atoms: _261  and  _263
REMARK  110  A    between atoms: _263  and  _264
REMARK  111  A    between atoms: _267  and  _268
REMARK  112  A    between atoms: _273  and  _275
REMARK  113  A    between atoms: _275  and  _276
REMARK  114  A    between atoms: _275  and  _278
REMARK  115  A    between atoms: _278  and  _279
REMARK  116  A    between atoms: _281  and  _283
REMARK  117  A    between atoms: _283  and  _284
REMARK  118  A    between atoms: _283  and  _286
REMARK  119  A    between atoms: _286  and  _287
REMARK  120  A    between atoms: _290  and  _292
REMARK  121  A    between atoms: _292  and  _293
REMARK  122  A    between atoms: _292  and  _295
REMARK  123  A    between atoms: _295  and  _296
REMARK  124  A    between atoms: _296  and  _297
REMARK  125  A    between atoms: _297  and  _298
REMARK  126  A    between atoms: _307  and  _309
REMARK  127  A    between atoms: _309  and  _310
REMARK  128  A    between atoms: _309  and  _312
REMARK  129  A    between atoms: _312  and  _313
REMARK  130  A    between atoms: _316  and  _318
REMARK  131  A    between atoms: _318  and  _319
REMARK  132  A    between atoms: _318  and  _321
REMARK  133  A    between atoms: _321  and  _322
REMARK  134  A    between atoms: _325  and  _326
REMARK  135  A    between atoms: _331  and  _333
REMARK  136  A    between atoms: _333  and  _334
REMARK  137  A    between atoms: _336  and  _338
REMARK  138  A    between atoms: _338  and  _339
REMARK  139  A    between atoms: _338  and  _341
REMARK  140  A    between atoms: _344  and  _346
REMARK  141  A    between atoms: _346  and  _347
REMARK  142  A    between atoms: _349  and  _351
REMARK  143  A    between atoms: _351  and  _352
REMARK  144  A    between atoms: _355  and  _357
REMARK  145  A    between atoms: _357  and  _358
REMARK  146  A    between atoms: _357  and  _360
REMARK  147  A    between atoms: _360  and  _361
REMARK  148  A    between atoms: _361  and  _362
REMARK  149  A    between atoms: _367  and  _369
REMARK  150  A    between atoms: _369  and  _370
REMARK  151  A    between atoms: _372  and  _374
REMARK  152  A    between atoms: _374  and  _375
REMARK  153  A    between atoms: _377  and  _379
REMARK  154  A    between atoms: _379  and  _380
REMARK  155  A    between atoms: _379  and  _382
REMARK  156  A    between atoms: _382  and  _383
REMARK  157  A    between atoms: _386  and  _388
REMARK  158  A    between atoms: _388  and  _389
REMARK  159  A    between atoms: _388  and  _391
REMARK  160  A    between atoms: _394  and  _396
REMARK  161  A    between atoms: _396  and  _397
REMARK  162  A    between atoms: _399  and  _401
REMARK  163  A    between atoms: _401  and  _402
REMARK  164  A    between atoms: _401  and  _404
REMARK  165  A    between atoms: _404  and  _405
REMARK  166  A    between atoms: _405  and  _406
REMARK  167  A    between atoms: _406  and  _407
REMARK  168  A    between atoms: _416  and  _418
REMARK  169  A    between atoms: _418  and  _419
REMARK  170  A    between atoms: _418  and  _421
REMARK  171  A    between atoms: _421  and  _422
REMARK  172  A    between atoms: _424  and  _426
REMARK  173  A    between atoms: _426  and  _427
REMARK  174  A    between atoms: _426  and  _429
REMARK  175  A    between atoms: _429  and  _430
REMARK  176  A    between atoms: _433  and  _435
REMARK  177  A    between atoms: _435  and  _436
REMARK  178  A    between atoms: _435  and  _438
REMARK  179  A    between atoms: _438  and  _439
REMARK  180  A    between atoms: _444  and  _445
REMARK  181  A    between atoms: _447  and  _449
REMARK  182  A    between atoms: _449  and  _450
REMARK  183  A    between atoms: _449  and  _452
REMARK  184  A    between atoms: _452  and  _453
REMARK  185  A    between atoms: _456  and  _458
REMARK  186  A    between atoms: _458  and  _459
REMARK  187  A    between atoms: _462  and  _464
REMARK  188  A    between atoms: _464  and  _465
REMARK  189  A    between atoms: _464  and  _467
REMARK  190  A    between atoms: _467  and  _468
REMARK  191  A    between atoms: _471  and  _473
REMARK  192  A    between atoms: _473  and  _474
REMARK  193  A    between atoms: _473  and  _476
REMARK  194  A    between atoms: _476  and  _477
REMARK  195  A    between atoms: _481  and  _482
REMARK  196  A    between atoms: _487  and  _489
REMARK  197  A    between atoms: _489  and  _490
REMARK  198  A    between atoms: _489  and  _492
REMARK  199  A    between atoms: _492  and  _493
REMARK  200  A    between atoms: _493  and  _494
REMARK  201  A    between atoms: _497  and  _499
REMARK  202  A    between atoms: _499  and  _500
REMARK  203  A    between atoms: _499  and  _502
REMARK  204  A    between atoms: _502  and  _503
REMARK  205  A    between atoms: _506  and  _508
REMARK  206  A    between atoms: _508  and  _509
REMARK  207  A    between atoms: _508  and  _511
REMARK  208  A    between atoms: _511  and  _512
REMARK  209  A    between atoms: _517  and  _519
REMARK  210  A    between atoms: _519  and  _520
REMARK  211  A    between atoms: _519  and  _522
REMARK  212  A    between atoms: _522  and  _523
REMARK  213  A    between atoms: _523  and  _524
REMARK  214  A    between atoms: _524  and  _525
REMARK  215  A    between atoms: _525  and  _526
REMARK  216  A    between atoms: _530  and  _532
REMARK  217  A    between atoms: _532  and  _533
REMARK  218  A    between atoms: _532  and  _535
REMARK  219  A    between atoms: _535  and  _536
REMARK                            x       y       z     vdW  Elec       q    Type
REMARK                         _______ _______ _______ _____ _____    ______ ____
ROOT
ATOM      1  CA  ASP A   3      21.948 -22.605  19.015  0.00  0.00    +0.160 C 
ENDROOT
BRANCH   1   4
ATOM      2  C   ALA A   2      20.502 -24.438  19.634  0.00  0.00    +0.241 C 
ATOM      3  O   ALA A   2      21.401 -24.908  20.371  0.00  0.00    -0.273 OA
ATOM      4  N   ASP A   3      20.676 -23.331  18.926  0.00  0.00    -0.297 N 
ATOM      5  H   ASP A   3      19.915 -22.979  18.311  0.00  0.00    +0.150 HD
BRANCH   2   6
ATOM      6  CA  ALA A   2      19.141 -25.113  19.513  0.00  0.00    +0.149 C 
ATOM      7  CB  ALA A   2      18.576 -25.393  20.889  0.00  0.00    +0.031 C 
BRANCH   6   9
ATOM      8  C   ILE A   1      19.305 -26.365  17.385  0.00  0.00    +0.238 C 
ATOM      9  N   ALA A   2      19.319 -26.373  18.723  0.00  0.00    -0.297 N 
ATOM     10  H   ALA A   2      19.456 -27.273  19.225  0.00  0.00    +0.150 HD
ATOM     11  O   ILE A   1      19.052 -25.359  16.694  0.00  0.00    -0.274 OA
BRANCH   8  12
ATOM     12  CA  ILE A   1      19.569 -27.701  16.705  0.00  0.00    +0.145 C 
BRANCH  12  13
ATOM     13  CB  ILE A   1      20.834 -27.606  15.867  0.00  0.00    +0.025 C 
ATOM     14  CG2 ILE A   1      22.066 -27.261  16.784  0.00  0.00    +0.002 C 
BRANCH  13  15
ATOM     15  CG1 ILE A   1      21.068 -28.929  15.109  0.00  0.00    +0.002 C 
ATOM     16  CD1 ILE A   1      22.303 -28.839  14.143  0.00  0.00    +0.000 C 
ENDBRANCH  13  15
ENDBRANCH  12  13
BRANCH  12  17
ATOM     17  N   ILE A   1      18.403 -27.983  15.859  0.00  0.00    -0.238 NA
ATOM     18  H   ILE A   1      18.328 -27.531  14.925  0.00  0.00    +0.142 HD
ENDBRANCH  12  17
ENDBRANCH   8  12
ENDBRANCH   6   9
ENDBRANCH   2   6
ENDBRANCH   1   4
BRANCH   1  19
ATOM     19  C   ASP A   3      21.905 -21.593  20.140  0.00  0.00    +0.241 C 
ATOM     20  N   PHE A   4      22.169 -22.077  21.347  0.00  0.00    -0.297 N 
ATOM     21  H   PHE A   4      22.434 -23.078  21.446  0.00  0.00    +0.150 HD
ATOM     22  O   ASP A   3      21.624 -20.416  19.929  0.00  0.00    -0.273 OA
BRANCH  20  23
ATOM     23  CA  PHE A   4      22.097 -21.248  22.524  0.00  0.00    +0.153 C 
BRANCH  23  24
ATOM     24  C   PHE A   4      23.494 -20.884  23.083  0.00  0.00    +0.241 C 
ATOM     25  O   PHE A   4      23.591 -20.254  24.137  0.00  0.00    -0.273 OA
ATOM     26  N   ALA A   5      24.551 -21.272  22.345  0.00  0.00    -0.298 N 
ATOM     27  H   ALA A   5      24.402 -21.900  21.530  0.00  0.00    +0.150 HD
BRANCH  26  28
ATOM     28  CA  ALA A   5      25.915 -20.823  22.672  0.00  0.00    +0.137 C 
ATOM     29  CB  ALA A   5      26.096 -19.367  22.160  0.00  0.00    +0.030 C 
BRANCH  28  30
ATOM     30  C   ALA A   5      26.142 -20.921  24.194  0.00  0.00    +0.227 C 
ATOM     31  O   ALA A   5      26.571 -19.963  24.845  0.00  0.00    -0.286 OA
ENDBRANCH  28  30
ENDBRANCH  26  28
ENDBRANCH  23  24
BRANCH  23  32
ATOM     32  CB  PHE A   4      21.256 -21.971  23.580  0.00  0.00    +0.055 C 
BRANCH  32  33
ATOM     33  CG  PHE A   4      19.773 -22.067  23.243  0.00  0.00    -0.020 A 
ATOM     34  CD2 PHE A   4      18.929 -22.774  24.106  0.00  0.00    -0.004 A 
ATOM     35  CE2 PHE A   4      17.572 -22.894  23.836  0.00  0.00    -0.000 A 
ATOM     36  CZ  PHE A   4      16.984 -22.247  22.717  0.00  0.00    -0.000 A 
ATOM     37  CE1 PHE A   4      17.802 -21.505  21.843  0.00  0.00    -0.000 A 
ATOM     38  CD1 PHE A   4      19.215 -21.403  22.112  0.00  0.00    -0.004 A 
ENDBRANCH  32  33
ENDBRANCH  23  32
ENDBRANCH  20  23
ENDBRANCH   1  19
BRANCH   1  39
ATOM     39  CB  ASP A   3      22.293 -21.925  17.708  0.00  0.00    +0.143 C 
BRANCH  39  40
ATOM     40  CG  ASP A   3      23.685 -21.301  17.762  0.00  0.00    +0.367 C 
ATOM     41  OD2 ASP A   3      24.406 -21.437  18.785  0.00  0.00    -0.246 OA
ATOM     42  OD1 ASP A   3      24.084 -20.681  16.750  0.00  0.00    -0.246 OA
ENDBRANCH  39  40
ENDBRANCH   1  39
TORSDOF 16
REMARK  Name = ../refined-set-2016/2zz2/2zz2_pocket.pdb
REMARK  219 active torsions:
REMARK  status: ('A' for Active; 'I' for Inactive)
REMARK    1  A    between atoms: _1  and  _3
REMARK    2  A    between atoms: _3  and  _4
REMARK    3  A    between atoms: _3  and  _6
REMARK    4  A    between atoms: _6  and  _7
REMARK    5  A    between atoms: _10  and  _12
REMARK    6  A    between atoms: _12  and  _13
REMARK    7  A    between atoms: _12  and  _15
REMARK    8  A    between atoms: _15  and  _16
REMARK    9  A    between atoms: _19  and  _21
REMARK   10  A    between atoms: _21  and  _22
REMARK   11  A    between atoms: _25  and  _27
REMARK   12  A    between atoms: _27  and  _28
REMARK   13  A    between atoms: _27  and  _30
REMARK   14  A    between atoms: _30  and  _31
REMARK   15  A    between atoms: _31  and  _32
REMARK   16  A    between atoms: _34  and  _36
REMARK   17  A    between atoms: _36  and  _37
REMARK   18  A    between atoms: _36  and  _39
REMARK   19  A    between atoms: _39  and  _40
REMARK   20  A    between atoms: _43  and  _45
REMARK   21  A    between atoms: _45  and  _46
REMARK   22  A    between atoms: _45  and  _48
REMARK   23  A    between atoms: _48  and  _49
REMARK   24  A    between atoms: _49  and  _50
REMARK   25  A    between atoms: _50  and  _51
REMARK   26  A    between atoms: _51  and  _52
REMARK   27  A    between atoms: _56  and  _58
REMARK   28  A    between atoms: _58  and  _59
REMARK   29  A    between atoms: _58  and  _61
REMARK   30  A    between atoms: _61  and  _62
REMARK   31  A    between atoms: _65  and  _67
REMARK   32  A    between atoms: _67  and  _68
REMARK   33  A    between atoms: _70  and  _72
REMARK   34  A    between atoms: _72  and  _73
REMARK   35  A    between atoms: _72  and  _75
REMARK   36  A    between atoms: _75  and  _76
REMARK   37  A    between atoms: _81  and  _82
REMARK   38  A    between atoms: _85  and  _86
REMARK   39  A    between atoms: _91  and  _93
REMARK   40  A    between atoms: _93  and  _94
REMARK   41  A    between atoms: _93  and  _96
REMARK   42  A    between atoms: _96  and  _97
REMARK   43  A    between atoms: _100  and  _102
REMARK   44  A    between atoms: _102  and  _103
REMARK   45  A    between atoms: _102  and  _105
REMARK   46  A    between atoms: _105  and  _106
REMARK   47  A    between atoms: _109  and  _111
REMARK   48  A    between atoms: _111  and  _112
REMARK   49  A    between atoms: _115  and  _117
REMARK   50  A    between atoms: _117  and  _118
REMARK   51  A    between atoms: _117  and  _120
REMARK   52  A    between atoms: _120  and  _121
REMARK   53  A    between atoms: _124  and  _126
REMARK   54  A    between atoms: _126  and  _127
REMARK   55  A    between atoms: _126  and  _129
REMARK   56  A    between atoms: _129  and  _130
REMARK   57  A    between atoms: _136  and  _138
REMARK   58  A    between atoms: _138  and  _139
REMARK   59  A    between atoms: _142  and  _144
REMARK   60  A    between atoms: _144  and  _145
REMARK   61  A    between atoms: _144  and  _147
REMARK   62  A    between atoms: _147  and  _148
REMARK   63  A    between atoms: _151  and  _153
REMARK   64  A    between atoms: _153  and  _154
REMARK   65  A    between atoms: _153  and  _156
REMARK   66  A    between atoms: _159  and  _161
REMARK   67  A    between atoms: _161  and  _162
REMARK   68  A    between atoms: _161  and  _164
REMARK   69  A    between atoms: _164  and  _165
REMARK   70  A    between atoms: _170  and  _172
REMARK   71  A    between atoms: _172  and  _173
REMARK   72  A    between atoms: _172  and  _175
REMARK   73  A    between atoms: _175  and  _176
REMARK   74  A    between atoms: _182  and  _184
REMARK   75  A    between atoms: _184  and  _185
REMARK   76  A    between atoms: _184  and  _187
REMARK   77  A    between atoms: _187  and  _188
REMARK   78  A    between atoms: _191  and  _193
REMARK   79  A    between atoms: _193  and  _194
REMARK   80  A    between atoms: _193  and  _196
REMARK   81  A    between atoms: _196  and  _197
REMARK   82  A    between atoms: _200  and  _202
REMARK   83  A    between atoms: _202  and  _203
REMARK   84  A    between atoms: _202  and  _205
REMARK   85  A    between atoms: _205  and  _206
REMARK   86  A    between atoms: _206  and  _207
REMARK   87  A    between atoms: _210  and  _212
REMARK   88  A    between atoms: _212  and  _213
REMARK   89  A    between atoms: _212  and  _215
REMARK   90  A    between atoms: _215  and  _216
REMARK   91  A    between atoms: _216  and  _217
REMARK   92  A    between atoms: _219  and  _221
REMARK   93  A    between atoms: _221  and  _222
REMARK   94  A    between atoms: _221  and  _224
REMARK   95  A    between atoms: _224  and  _225
REMARK   96  A    between atoms: _227  and  _229
REMARK   97  A    between atoms: _229  and  _230
REMARK   98  A    between atoms: _229  and  _232
REMARK   99  A    between atoms: _232  and  _233
REMARK  100  A    between atoms: _238  and  _240
REMARK  101  A    between atoms: _240  and  _241
REMARK  102  A    between atoms: _244  and  _246
REMARK  103  A    between atoms: _246  and  _247
REMARK  104  A    between atoms: _246  and  _249
REMARK  105  A    between atoms: _249  and  _250
REMARK  106  A    between atoms: _253  and  _255
REMARK  107  A    between atoms: _255  and  _256
REMARK  108  A    between atoms: _255  and  _258
REMARK  109  A    between atoms: _261  and  _263
REMARK  110  A    between atoms: _263  and  _264
REMARK  111  A    between atoms: _267  and  _268
REMARK  112  A    between atoms: _273  and  _275
REMARK  113  A    between atoms: _275  and  _276
REMARK  114  A    between atoms: _275  and  _278
REMARK  115  A    between atoms: _278  and  _279
REMARK  116  A    between atoms: _281  and  _283
REMARK  117  A    between atoms: _283  and  _284
REMARK  118  A    between atoms: _283  and  _286
REMARK  119  A    between atoms: _286  and  _287
REMARK  120  A    between atoms: _290  and  _292
REMARK  121  A    between atoms: _292  and  _293
REMARK  122  A    between atoms: _292  and  _295
REMARK  123  A    between atoms: _295  and  _296
REMARK  124  A    between atoms: _296  and  _297
REMARK  125  A    between atoms: _297  and  _298
REMARK  126  A    between atoms: _307  and  _309
REMARK  127  A    between atoms: _309  and  _310
REMARK  128  A    between atoms: _309  and  _312
REMARK  129  A    between atoms: _312  and  _313
REMARK  130  A    between atoms: _316  and  _318
REMARK  131  A    between atoms: _318  and  _319
REMARK  132  A    between atoms: _318  and  _321
REMARK  133  A    between atoms: _321  and  _322
REMARK  134  A    between atoms: _325  and  _326
REMARK  135  A    between atoms: _331  and  _333
REMARK  136  A    between atoms: _333  and  _334
REMARK  137  A    between atoms: _336  and  _338
REMARK  138  A    between atoms: _338  and  _339
REMARK  139  A    between atoms: _338  and  _341
REMARK  140  A    between atoms: _344  and  _346
REMARK  141  A    between atoms: _346  and  _347
REMARK  142  A    between atoms: _349  and  _351
REMARK  143  A    between atoms: _351  and  _352
REMARK  144  A    between atoms: _355  and  _357
REMARK  145  A    between atoms: _357  and  _358
REMARK  146  A    between atoms: _357  and  _360
REMARK  147  A    between atoms: _360  and  _361
REMARK  148  A    between atoms: _361  and  _362
REMARK  149  A    between atoms: _367  and  _369
REMARK  150  A    between atoms: _369  and  _370
REMARK  151  A    between atoms: _372  and  _374
REMARK  152  A    between atoms: _374  and  _375
REMARK  153  A    between atoms: _377  and  _379
REMARK  154  A    between atoms: _379  and  _380
REMARK  155  A    between atoms: _379  and  _382
REMARK  156  A    between atoms: _382  and  _383
REMARK  157  A    between atoms: _386  and  _388
REMARK  158  A    between atoms: _388  and  _389
REMARK  159  A    between atoms: _388  and  _391
REMARK  160  A    between atoms: _394  and  _396
REMARK  161  A    between atoms: _396  and  _397
REMARK  162  A    between atoms: _399  and  _401
REMARK  163  A    between atoms: _401  and  _402
REMARK  164  A    between atoms: _401  and  _404
REMARK  165  A    between atoms: _404  and  _405
REMARK  166  A    between atoms: _405  and  _406
REMARK  167  A    between atoms: _406  and  _407
REMARK  168  A    between atoms: _416  and  _418
REMARK  169  A    between atoms: _418  and  _419
REMARK  170  A    between atoms: _418  and  _421
REMARK  171  A    between atoms: _421  and  _422
REMARK  172  A    between atoms: _424  and  _426
REMARK  173  A    between atoms: _426  and  _427
REMARK  174  A    between atoms: _426  and  _429
REMARK  175  A    between atoms: _429  and  _430
REMARK  176  A    between atoms: _433  and  _435
REMARK  177  A    between atoms: _435  and  _436
REMARK  178  A    between atoms: _435  and  _438
REMARK  179  A    between atoms: _438  and  _439
REMARK  180  A    between atoms: _444  and  _445
REMARK  181  A    between atoms: _447  and  _449
REMARK  182  A    between atoms: _449  and  _450
REMARK  183  A    between atoms: _449  and  _452
REMARK  184  A    between atoms: _452  and  _453
REMARK  185  A    between atoms: _456  and  _458
REMARK  186  A    between atoms: _458  and  _459
REMARK  187  A    between atoms: _462  and  _464
REMARK  188  A    between atoms: _464  and  _465
REMARK  189  A    between atoms: _464  and  _467
REMARK  190  A    between atoms: _467  and  _468
REMARK  191  A    between atoms: _471  and  _473
REMARK  192  A    between atoms: _473  and  _474
REMARK  193  A    between atoms: _473  and  _476
REMARK  194  A    between atoms: _476  and  _477
REMARK  195  A    between atoms: _481  and  _482
REMARK  196  A    between atoms: _487  and  _489
REMARK  197  A    between atoms: _489  and  _490
REMARK  198  A    between atoms: _489  and  _492
REMARK  199  A    between atoms: _492  and  _493
REMARK  200  A    between atoms: _493  and  _494
REMARK  201  A    between atoms: _497  and  _499
REMARK  202  A    between atoms: _499  and  _500
REMARK  203  A    between atoms: _499  and  _502
REMARK  204  A    between atoms: _502  and  _503
REMARK  205  A    between atoms: _506  and  _508
REMARK  206  A    between atoms: _508  and  _509
REMARK  207  A    between atoms: _508  and  _511
REMARK  208  A    between atoms: _511  and  _512
REMARK  209  A    between atoms: _517  and  _519
REMARK  210  A    between atoms: _519  and  _520
REMARK  211  A    between atoms: _519  and  _522
REMARK  212  A    between atoms: _522  and  _523
REMARK  213  A    between atoms: _523  and  _524
REMARK  214  A    between atoms: _524  and  _525
REMARK  215  A    between atoms: _525  and  _526
REMARK  216  A    between atoms: _530  and  _532
REMARK  217  A    between atoms: _532  and  _533
REMARK  218  A    between atoms: _532  and  _535
REMARK  219  A    between atoms: _535  and  _536
REMARK                            x       y       z     vdW  Elec       q    Type
REMARK                         _______ _______ _______ _____ _____    ______ ____
ROOT
ATOM      1  CA  VAL A   2      27.597 -25.271  23.772  0.00  0.00    +0.148 C 
ENDROOT
BRANCH   1   4
ATOM      2  C   ILE A   1      25.805 -25.208  22.076  0.00  0.00    +0.238 C 
ATOM      3  O   ILE A   1      25.163 -24.305  22.627  0.00  0.00    -0.274 OA
ATOM      4  N   VAL A   2      26.997 -25.624  22.488  0.00  0.00    -0.297 N 
ATOM      5  H   VAL A   2      27.540 -26.243  21.853  0.00  0.00    +0.150 HD
BRANCH   2   6
ATOM      6  CA  ILE A   1      25.301 -25.848  20.802  0.00  0.00    +0.145 C 
BRANCH   6   7
ATOM      7  N   ILE A   1      23.927 -26.309  20.973  0.00  0.00    -0.238 NA
ATOM      8  H   ILE A   1      23.143 -25.643  20.821  0.00  0.00    +0.142 HD
ENDBRANCH   6   7
BRANCH   6   9
ATOM      9  CB  ILE A   1      25.381 -24.835  19.628  0.00  0.00    +0.025 C 
ATOM     10  CG2 ILE A   1      26.831 -24.249  19.536  0.00  0.00    +0.002 C 
BRANCH   9  11
ATOM     11  CG1 ILE A   1      25.076 -25.598  18.330  0.00  0.00    +0.002 C 
ATOM     12  CD1 ILE A   1      24.892 -24.681  17.037  0.00  0.00    +0.000 C 
ENDBRANCH   9  11
ENDBRANCH   6   9
ENDBRANCH   2   6
ENDBRANCH   1   4
BRANCH   1  13
ATOM     13  C   VAL A   2      29.020 -24.718  23.545  0.00  0.00    +0.241 C 
ATOM     14  N   HIS A   3      29.350 -23.592  24.175  0.00  0.00    -0.298 N 
ATOM     15  H   HIS A   3      28.642 -23.077  24.736  0.00  0.00    +0.150 HD
ATOM     16  O   VAL A   2      29.802 -25.312  22.772  0.00  0.00    -0.273 OA
BRANCH  14  17
ATOM     17  CA  HIS A   3      30.718 -23.088  24.069  0.00  0.00    +0.143 C 
BRANCH  17  18
ATOM     18  C   HIS A   3      31.688 -23.971  24.857  0.00  0.00    +0.227 C 
ATOM     19  O   HIS A   3      31.399 -24.420  25.973  0.00  0.00    -0.286 OA
ENDBRANCH  17  18
BRANCH  17  20
ATOM     20  CB  HIS A   3      30.787 -21.691  24.690  0.00  0.00    +0.075 C 
BRANCH  20  21
ATOM     21  CG  HIS A   3      30.661 -20.594  23.694  0.00  0.00    +0.082 A 
ATOM     22  CD2 HIS A   3      29.695 -19.653  23.506  0.00  0.00    +0.115 A 
ATOM     23  NE2 HIS A   3      30.115 -18.852  22.467  0.00  0.00    -0.221 NA
ATOM     24  CE1 HIS A   3      31.283 -19.309  22.015  0.00  0.00    +0.199 A 
ATOM     25  ND1 HIS A   3      31.646 -20.355  22.750  0.00  0.00    -0.227 NA
ENDBRANCH  20  21
ENDBRANCH  17  20
ENDBRANCH  14  17
ENDBRANCH   1  13
BRANCH   1  26
ATOM     26  CB  VAL A   2      27.661 -26.539  24.676  0.00  0.00    +0.027 C 
ATOM     27  CG2 VAL A   2      28.391 -26.244  25.997  0.00  0.00    +0.002 C 
ATOM     28  CG1 VAL A   2      26.243 -27.068  24.908  0.00  0.00    +0.002 C 
ENDBRANCH   1  26
TORSDOF 11
REMARK  Name = ../refined-set-2016/2zz2/2zz2_pocket.pdb
REMARK  219 active torsions:
REMARK  status: ('A' for Active; 'I' for Inactive)
REMARK    1  A    between atoms: _1  and  _3
REMARK    2  A    between atoms: _3  and  _4
REMARK    3  A    between atoms: _3  and  _6
REMARK    4  A    between atoms: _6  and  _7
REMARK    5  A    between atoms: _10  and  _12
REMARK    6  A    between atoms: _12  and  _13
REMARK    7  A    between atoms: _12  and  _15
REMARK    8  A    between atoms: _15  and  _16
REMARK    9  A    between atoms: _19  and  _21
REMARK   10  A    between atoms: _21  and  _22
REMARK   11  A    between atoms: _25  and  _27
REMARK   12  A    between atoms: _27  and  _28
REMARK   13  A    between atoms: _27  and  _30
REMARK   14  A    between atoms: _30  and  _31
REMARK   15  A    between atoms: _31  and  _32
REMARK   16  A    between atoms: _34  and  _36
REMARK   17  A    between atoms: _36  and  _37
REMARK   18  A    between atoms: _36  and  _39
REMARK   19  A    between atoms: _39  and  _40
REMARK   20  A    between atoms: _43  and  _45
REMARK   21  A    between atoms: _45  and  _46
REMARK   22  A    between atoms: _45  and  _48
REMARK   23  A    between atoms: _48  and  _49
REMARK   24  A    between atoms: _49  and  _50
REMARK   25  A    between atoms: _50  and  _51
REMARK   26  A    between atoms: _51  and  _52
REMARK   27  A    between atoms: _56  and  _58
REMARK   28  A    between atoms: _58  and  _59
REMARK   29  A    between atoms: _58  and  _61
REMARK   30  A    between atoms: _61  and  _62
REMARK   31  A    between atoms: _65  and  _67
REMARK   32  A    between atoms: _67  and  _68
REMARK   33  A    between atoms: _70  and  _72
REMARK   34  A    between atoms: _72  and  _73
REMARK   35  A    between atoms: _72  and  _75
REMARK   36  A    between atoms: _75  and  _76
REMARK   37  A    between atoms: _81  and  _82
REMARK   38  A    between atoms: _85  and  _86
REMARK   39  A    between atoms: _91  and  _93
REMARK   40  A    between atoms: _93  and  _94
REMARK   41  A    between atoms: _93  and  _96
REMARK   42  A    between atoms: _96  and  _97
REMARK   43  A    between atoms: _100  and  _102
REMARK   44  A    between atoms: _102  and  _103
REMARK   45  A    between atoms: _102  and  _105
REMARK   46  A    between atoms: _105  and  _106
REMARK   47  A    between atoms: _109  and  _111
REMARK   48  A    between atoms: _111  and  _112
REMARK   49  A    between atoms: _115  and  _117
REMARK   50  A    between atoms: _117  and  _118
REMARK   51  A    between atoms: _117  and  _120
REMARK   52  A    between atoms: _120  and  _121
REMARK   53  A    between atoms: _124  and  _126
REMARK   54  A    between atoms: _126  and  _127
REMARK   55  A    between atoms: _126  and  _129
REMARK   56  A    between atoms: _129  and  _130
REMARK   57  A    between atoms: _136  and  _138
REMARK   58  A    between atoms: _138  and  _139
REMARK   59  A    between atoms: _142  and  _144
REMARK   60  A    between atoms: _144  and  _145
REMARK   61  A    between atoms: _144  and  _147
REMARK   62  A    between atoms: _147  and  _148
REMARK   63  A    between atoms: _151  and  _153
REMARK   64  A    between atoms: _153  and  _154
REMARK   65  A    between atoms: _153  and  _156
REMARK   66  A    between atoms: _159  and  _161
REMARK   67  A    between atoms: _161  and  _162
REMARK   68  A    between atoms: _161  and  _164
REMARK   69  A    between atoms: _164  and  _165
REMARK   70  A    between atoms: _170  and  _172
REMARK   71  A    between atoms: _172  and  _173
REMARK   72  A    between atoms: _172  and  _175
REMARK   73  A    between atoms: _175  and  _176
REMARK   74  A    between atoms: _182  and  _184
REMARK   75  A    between atoms: _184  and  _185
REMARK   76  A    between atoms: _184  and  _187
REMARK   77  A    between atoms: _187  and  _188
REMARK   78  A    between atoms: _191  and  _193
REMARK   79  A    between atoms: _193  and  _194
REMARK   80  A    between atoms: _193  and  _196
REMARK   81  A    between atoms: _196  and  _197
REMARK   82  A    between atoms: _200  and  _202
REMARK   83  A    between atoms: _202  and  _203
REMARK   84  A    between atoms: _202  and  _205
REMARK   85  A    between atoms: _205  and  _206
REMARK   86  A    between atoms: _206  and  _207
REMARK   87  A    between atoms: _210  and  _212
REMARK   88  A    between atoms: _212  and  _213
REMARK   89  A    between atoms: _212  and  _215
REMARK   90  A    between atoms: _215  and  _216
REMARK   91  A    between atoms: _216  and  _217
REMARK   92  A    between atoms: _219  and  _221
REMARK   93  A    between atoms: _221  and  _222
REMARK   94  A    between atoms: _221  and  _224
REMARK   95  A    between atoms: _224  and  _225
REMARK   96  A    between atoms: _227  and  _229
REMARK   97  A    between atoms: _229  and  _230
REMARK   98  A    between atoms: _229  and  _232
REMARK   99  A    between atoms: _232  and  _233
REMARK  100  A    between atoms: _238  and  _240
REMARK  101  A    between atoms: _240  and  _241
REMARK  102  A    between atoms: _244  and  _246
REMARK  103  A    between atoms: _246  and  _247
REMARK  104  A    between atoms: _246  and  _249
REMARK  105  A    between atoms: _249  and  _250
REMARK  106  A    between atoms: _253  and  _255
REMARK  107  A    between atoms: _255  and  _256
REMARK  108  A    between atoms: _255  and  _258
REMARK  109  A    between atoms: _261  and  _263
REMARK  110  A    between atoms: _263  and  _264
REMARK  111  A    between atoms: _267  and  _268
REMARK  112  A    between atoms: _273  and  _275
REMARK  113  A    between atoms: _275  and  _276
REMARK  114  A    between atoms: _275  and  _278
REMARK  115  A    between atoms: _278  and  _279
REMARK  116  A    between atoms: _281  and  _283
REMARK  117  A    between atoms: _283  and  _284
REMARK  118  A    between atoms: _283  and  _286
REMARK  119  A    between atoms: _286  and  _287
REMARK  120  A    between atoms: _290  and  _292
REMARK  121  A    between atoms: _292  and  _293
REMARK  122  A    between atoms: _292  and  _295
REMARK  123  A    between atoms: _295  and  _296
REMARK  124  A    between atoms: _296  and  _297
REMARK  125  A    between atoms: _297  and  _298
REMARK  126  A    between atoms: _307  and  _309
REMARK  127  A    between atoms: _309  and  _310
REMARK  128  A    between atoms: _309  and  _312
REMARK  129  A    between atoms: _312  and  _313
REMARK  130  A    between atoms: _316  and  _318
REMARK  131  A    between atoms: _318  and  _319
REMARK  132  A    between atoms: _318  and  _321
REMARK  133  A    between atoms: _321  and  _322
REMARK  134  A    between atoms: _325  and  _326
REMARK  135  A    between atoms: _331  and  _333
REMARK  136  A    between atoms: _333  and  _334
REMARK  137  A    between atoms: _336  and  _338
REMARK  138  A    between atoms: _338  and  _339
REMARK  139  A    between atoms: _338  and  _341
REMARK  140  A    between atoms: _344  and  _346
REMARK  141  A    between atoms: _346  and  _347
REMARK  142  A    between atoms: _349  and  _351
REMARK  143  A    between atoms: _351  and  _352
REMARK  144  A    between atoms: _355  and  _357
REMARK  145  A    between atoms: _357  and  _358
REMARK  146  A    between atoms: _357  and  _360
REMARK  147  A    between atoms: _360  and  _361
REMARK  148  A    between atoms: _361  and  _362
REMARK  149  A    between atoms: _367  and  _369
REMARK  150  A    between atoms: _369  and  _370
REMARK  151  A    between atoms: _372  and  _374
REMARK  152  A    between atoms: _374  and  _375
REMARK  153  A    between atoms: _377  and  _379
REMARK  154  A    between atoms: _379  and  _380
REMARK  155  A    between atoms: _379  and  _382
REMARK  156  A    between atoms: _382  and  _383
REMARK  157  A    between atoms: _386  and  _388
REMARK  158  A    between atoms: _388  and  _389
REMARK  159  A    between atoms: _388  and  _391
REMARK  160  A    between atoms: _394  and  _396
REMARK  161  A    between atoms: _396  and  _397
REMARK  162  A    between atoms: _399  and  _401
REMARK  163  A    between atoms: _401  and  _402
REMARK  164  A    between atoms: _401  and  _404
REMARK  165  A    between atoms: _404  and  _405
REMARK  166  A    between atoms: _405  and  _406
REMARK  167  A    between atoms: _406  and  _407
REMARK  168  A    between atoms: _416  and  _418
REMARK  169  A    between atoms: _418  and  _419
REMARK  170  A    between atoms: _418  and  _421
REMARK  171  A    between atoms: _421  and  _422
REMARK  172  A    between atoms: _424  and  _426
REMARK  173  A    between atoms: _426  and  _427
REMARK  174  A    between atoms: _426  and  _429
REMARK  175  A    between atoms: _429  and  _430
REMARK  176  A    between atoms: _433  and  _435
REMARK  177  A    between atoms: _435  and  _436
REMARK  178  A    between atoms: _435  and  _438
REMARK  179  A    between atoms: _438  and  _439
REMARK  180  A    between atoms: _444  and  _445
REMARK  181  A    between atoms: _447  and  _449
REMARK  182  A    between atoms: _449  and  _450
REMARK  183  A    between atoms: _449  and  _452
REMARK  184  A    between atoms: _452  and  _453
REMARK  185  A    between atoms: _456  and  _458
REMARK  186  A    between atoms: _458  and  _459
REMARK  187  A    between atoms: _462  and  _464
REMARK  188  A    between atoms: _464  and  _465
REMARK  189  A    between atoms: _464  and  _467
REMARK  190  A    between atoms: _467  and  _468
REMARK  191  A    between atoms: _471  and  _473
REMARK  192  A    between atoms: _473  and  _474
REMARK  193  A    between atoms: _473  and  _476
REMARK  194  A    between atoms: _476  and  _477
REMARK  195  A    between atoms: _481  and  _482
REMARK  196  A    between atoms: _487  and  _489
REMARK  197  A    between atoms: _489  and  _490
REMARK  198  A    between atoms: _489  and  _492
REMARK  199  A    between atoms: _492  and  _493
REMARK  200  A    between atoms: _493  and  _494
REMARK  201  A    between atoms: _497  and  _499
REMARK  202  A    between atoms: _499  and  _500
REMARK  203  A    between atoms: _499  and  _502
REMARK  204  A    between atoms: _502  and  _503
REMARK  205  A    between atoms: _506  and  _508
REMARK  206  A    between atoms: _508  and  _509
REMARK  207  A    between atoms: _508  and  _511
REMARK  208  A    between atoms: _511  and  _512
REMARK  209  A    between atoms: _517  and  _519
REMARK  210  A    between atoms: _519  and  _520
REMARK  211  A    between atoms: _519  and  _522
REMARK  212  A    between atoms: _522  and  _523
REMARK  213  A    between atoms: _523  and  _524
REMARK  214  A    between atoms: _524  and  _525
REMARK  215  A    between atoms: _525  and  _526
REMARK  216  A    between atoms: _530  and  _532
REMARK  217  A    between atoms: _532  and  _533
REMARK  218  A    between atoms: _532  and  _535
REMARK  219  A    between atoms: _535  and  _536
REMARK                            x       y       z     vdW  Elec       q    Type
REMARK                         _______ _______ _______ _____ _____    ______ ____
ROOT
ATOM      1  CB  PHE A   1      26.960 -28.926  18.451  0.00  0.00    +0.051 C 
ENDROOT
BRANCH   1   2
ATOM      2  CG  PHE A   1      26.376 -29.793  17.395  0.00  0.00    -0.020 A 
ATOM      3  CD2 PHE A   1      25.190 -30.510  17.632  0.00  0.00    -0.004 A 
ATOM      4  CE2 PHE A   1      24.657 -31.364  16.657  0.00  0.00    -0.000 A 
ATOM      5  CZ  PHE A   1      25.257 -31.446  15.391  0.00  0.00    -0.000 A 
ATOM      6  CE1 PHE A   1      26.439 -30.758  15.138  0.00  0.00    -0.000 A 
ATOM      7  CD1 PHE A   1      26.992 -29.911  16.144  0.00  0.00    -0.004 A 
ENDBRANCH   1   2
BRANCH   1   8
ATOM      8  CA  PHE A   1      27.633 -29.711  19.586  0.00  0.00    +0.137 C 
BRANCH   8   9
ATOM      9  N   PHE A   1      26.623 -30.192  20.539  0.00  0.00    -0.239 NA
ATOM     10  H   PHE A   1      25.837 -29.559  20.792  0.00  0.00    +0.142 HD
ENDBRANCH   8   9
BRANCH   8  11
ATOM     11  C   PHE A   1      28.552 -28.768  20.319  0.00  0.00    +0.224 C 
ATOM     12  O   PHE A   1      28.059 -27.803  20.936  0.00  0.00    -0.287 OA
ENDBRANCH   8  11
ENDBRANCH   1   8
TORSDOF 4
REMARK  Name = ../refined-set-2016/2zz2/2zz2_pocket.pdb
REMARK  219 active torsions:
REMARK  status: ('A' for Active; 'I' for Inactive)
REMARK    1  A    between atoms: _1  and  _3
REMARK    2  A    between atoms: _3  and  _4
REMARK    3  A    between atoms: _3  and  _6
REMARK    4  A    between atoms: _6  and  _7
REMARK    5  A    between atoms: _10  and  _12
REMARK    6  A    between atoms: _12  and  _13
REMARK    7  A    between atoms: _12  and  _15
REMARK    8  A    between atoms: _15  and  _16
REMARK    9  A    between atoms: _19  and  _21
REMARK   10  A    between atoms: _21  and  _22
REMARK   11  A    between atoms: _25  and  _27
REMARK   12  A    between atoms: _27  and  _28
REMARK   13  A    between atoms: _27  and  _30
REMARK   14  A    between atoms: _30  and  _31
REMARK   15  A    between atoms: _31  and  _32
REMARK   16  A    between atoms: _34  and  _36
REMARK   17  A    between atoms: _36  and  _37
REMARK   18  A    between atoms: _36  and  _39
REMARK   19  A    between atoms: _39  and  _40
REMARK   20  A    between atoms: _43  and  _45
REMARK   21  A    between atoms: _45  and  _46
REMARK   22  A    between atoms: _45  and  _48
REMARK   23  A    between atoms: _48  and  _49
REMARK   24  A    between atoms: _49  and  _50
REMARK   25  A    between atoms: _50  and  _51
REMARK   26  A    between atoms: _51  and  _52
REMARK   27  A    between atoms: _56  and  _58
REMARK   28  A    between atoms: _58  and  _59
REMARK   29  A    between atoms: _58  and  _61
REMARK   30  A    between atoms: _61  and  _62
REMARK   31  A    between atoms: _65  and  _67
REMARK   32  A    between atoms: _67  and  _68
REMARK   33  A    between atoms: _70  and  _72
REMARK   34  A    between atoms: _72  and  _73
REMARK   35  A    between atoms: _72  and  _75
REMARK   36  A    between atoms: _75  and  _76
REMARK   37  A    between atoms: _81  and  _82
REMARK   38  A    between atoms: _85  and  _86
REMARK   39  A    between atoms: _91  and  _93
REMARK   40  A    between atoms: _93  and  _94
REMARK   41  A    between atoms: _93  and  _96
REMARK   42  A    between atoms: _96  and  _97
REMARK   43  A    between atoms: _100  and  _102
REMARK   44  A    between atoms: _102  and  _103
REMARK   45  A    between atoms: _102  and  _105
REMARK   46  A    between atoms: _105  and  _106
REMARK   47  A    between atoms: _109  and  _111
REMARK   48  A    between atoms: _111  and  _112
REMARK   49  A    between atoms: _115  and  _117
REMARK   50  A    between atoms: _117  and  _118
REMARK   51  A    between atoms: _117  and  _120
REMARK   52  A    between atoms: _120  and  _121
REMARK   53  A    between atoms: _124  and  _126
REMARK   54  A    between atoms: _126  and  _127
REMARK   55  A    between atoms: _126  and  _129
REMARK   56  A    between atoms: _129  and  _130
REMARK   57  A    between atoms: _136  and  _138
REMARK   58  A    between atoms: _138  and  _139
REMARK   59  A    between atoms: _142  and  _144
REMARK   60  A    between atoms: _144  and  _145
REMARK   61  A    between atoms: _144  and  _147
REMARK   62  A    between atoms: _147  and  _148
REMARK   63  A    between atoms: _151  and  _153
REMARK   64  A    between atoms: _153  and  _154
REMARK   65  A    between atoms: _153  and  _156
REMARK   66  A    between atoms: _159  and  _161
REMARK   67  A    between atoms: _161  and  _162
REMARK   68  A    between atoms: _161  and  _164
REMARK   69  A    between atoms: _164  and  _165
REMARK   70  A    between atoms: _170  and  _172
REMARK   71  A    between atoms: _172  and  _173
REMARK   72  A    between atoms: _172  and  _175
REMARK   73  A    between atoms: _175  and  _176
REMARK   74  A    between atoms: _182  and  _184
REMARK   75  A    between atoms: _184  and  _185
REMARK   76  A    between atoms: _184  and  _187
REMARK   77  A    between atoms: _187  and  _188
REMARK   78  A    between atoms: _191  and  _193
REMARK   79  A    between atoms: _193  and  _194
REMARK   80  A    between atoms: _193  and  _196
REMARK   81  A    between atoms: _196  and  _197
REMARK   82  A    between atoms: _200  and  _202
REMARK   83  A    between atoms: _202  and  _203
REMARK   84  A    between atoms: _202  and  _205
REMARK   85  A    between atoms: _205  and  _206
REMARK   86  A    between atoms: _206  and  _207
REMARK   87  A    between atoms: _210  and  _212
REMARK   88  A    between atoms: _212  and  _213
REMARK   89  A    between atoms: _212  and  _215
REMARK   90  A    between atoms: _215  and  _216
REMARK   91  A    between atoms: _216  and  _217
REMARK   92  A    between atoms: _219  and  _221
REMARK   93  A    between atoms: _221  and  _222
REMARK   94  A    between atoms: _221  and  _224
REMARK   95  A    between atoms: _224  and  _225
REMARK   96  A    between atoms: _227  and  _229
REMARK   97  A    between atoms: _229  and  _230
REMARK   98  A    between atoms: _229  and  _232
REMARK   99  A    between atoms: _232  and  _233
REMARK  100  A    between atoms: _238  and  _240
REMARK  101  A    between atoms: _240  and  _241
REMARK  102  A    between atoms: _244  and  _246
REMARK  103  A    between atoms: _246  and  _247
REMARK  104  A    between atoms: _246  and  _249
REMARK  105  A    between atoms: _249  and  _250
REMARK  106  A    between atoms: _253  and  _255
REMARK  107  A    between atoms: _255  and  _256
REMARK  108  A    between atoms: _255  and  _258
REMARK  109  A    between atoms: _261  and  _263
REMARK  110  A    between atoms: _263  and  _264
REMARK  111  A    between atoms: _267  and  _268
REMARK  112  A    between atoms: _273  and  _275
REMARK  113  A    between atoms: _275  and  _276
REMARK  114  A    between atoms: _275  and  _278
REMARK  115  A    between atoms: _278  and  _279
REMARK  116  A    between atoms: _281  and  _283
REMARK  117  A    between atoms: _283  and  _284
REMARK  118  A    between atoms: _283  and  _286
REMARK  119  A    between atoms: _286  and  _287
REMARK  120  A    between atoms: _290  and  _292
REMARK  121  A    between atoms: _292  and  _293
REMARK  122  A    between atoms: _292  and  _295
REMARK  123  A    between atoms: _295  and  _296
REMARK  124  A    between atoms: _296  and  _297
REMARK  125  A    between atoms: _297  and  _298
REMARK  126  A    between atoms: _307  and  _309
REMARK  127  A    between atoms: _309  and  _310
REMARK  128  A    between atoms: _309  and  _312
REMARK  129  A    between atoms: _312  and  _313
REMARK  130  A    between atoms: _316  and  _318
REMARK  131  A    between atoms: _318  and  _319
REMARK  132  A    between atoms: _318  and  _321
REMARK  133  A    between atoms: _321  and  _322
REMARK  134  A    between atoms: _325  and  _326
REMARK  135  A    between atoms: _331  and  _333
REMARK  136  A    between atoms: _333  and  _334
REMARK  137  A    between atoms: _336  and  _338
REMARK  138  A    between atoms: _338  and  _339
REMARK  139  A    between atoms: _338  and  _341
REMARK  140  A    between atoms: _344  and  _346
REMARK  141  A    between atoms: _346  and  _347
REMARK  142  A    between atoms: _349  and  _351
REMARK  143  A    between atoms: _351  and  _352
REMARK  144  A    between atoms: _355  and  _357
REMARK  145  A    between atoms: _357  and  _358
REMARK  146  A    between atoms: _357  and  _360
REMARK  147  A    between atoms: _360  and  _361
REMARK  148  A    between atoms: _361  and  _362
REMARK  149  A    between atoms: _367  and  _369
REMARK  150  A    between atoms: _369  and  _370
REMARK  151  A    between atoms: _372  and  _374
REMARK  152  A    between atoms: _374  and  _375
REMARK  153  A    between atoms: _377  and  _379
REMARK  154  A    between atoms: _379  and  _380
REMARK  155  A    between atoms: _379  and  _382
REMARK  156  A    between atoms: _382  and  _383
REMARK  157  A    between atoms: _386  and  _388
REMARK  158  A    between atoms: _388  and  _389
REMARK  159  A    between atoms: _388  and  _391
REMARK  160  A    between atoms: _394  and  _396
REMARK  161  A    between atoms: _396  and  _397
REMARK  162  A    between atoms: _399  and  _401
REMARK  163  A    between atoms: _401  and  _402
REMARK  164  A    between atoms: _401  and  _404
REMARK  165  A    between atoms: _404  and  _405
REMARK  166  A    between atoms: _405  and  _406
REMARK  167  A    between atoms: _406  and  _407
REMARK  168  A    between atoms: _416  and  _418
REMARK  169  A    between atoms: _418  and  _419
REMARK  170  A    between atoms: _418  and  _421
REMARK  171  A    between atoms: _421  and  _422
REMARK  172  A    between atoms: _424  and  _426
REMARK  173  A    between atoms: _426  and  _427
REMARK  174  A    between atoms: _426  and  _429
REMARK  175  A    between atoms: _429  and  _430
REMARK  176  A    between atoms: _433  and  _435
REMARK  177  A    between atoms: _435  and  _436
REMARK  178  A    between atoms: _435  and  _438
REMARK  179  A    between atoms: _438  and  _439
REMARK  180  A    between atoms: _444  and  _445
REMARK  181  A    between atoms: _447  and  _449
REMARK  182  A    between atoms: _449  and  _450
REMARK  183  A    between atoms: _449  and  _452
REMARK  184  A    between atoms: _452  and  _453
REMARK  185  A    between atoms: _456  and  _458
REMARK  186  A    between atoms: _458  and  _459
REMARK  187  A    between atoms: _462  and  _464
REMARK  188  A    between atoms: _464  and  _465
REMARK  189  A    between atoms: _464  and  _467
REMARK  190  A    between atoms: _467  and  _468
REMARK  191  A    between atoms: _471  and  _473
REMARK  192  A    between atoms: _473  and  _474
REMARK  193  A    between atoms: _473  and  _476
REMARK  194  A    between atoms: _476  and  _477
REMARK  195  A    between atoms: _481  and  _482
REMARK  196  A    between atoms: _487  and  _489
REMARK  197  A    between atoms: _489  and  _490
REMARK  198  A    between atoms: _489  and  _492
REMARK  199  A    between atoms: _492  and  _493
REMARK  200  A    between atoms: _493  and  _494
REMARK  201  A    between atoms: _497  and  _499
REMARK  202  A    between atoms: _499  and  _500
REMARK  203  A    between atoms: _499  and  _502
REMARK  204  A    between atoms: _502  and  _503
REMARK  205  A    between atoms: _506  and  _508
REMARK  206  A    between atoms: _508  and  _509
REMARK  207  A    between atoms: _508  and  _511
REMARK  208  A    between atoms: _511  and  _512
REMARK  209  A    between atoms: _517  and  _519
REMARK  210  A    between atoms: _519  and  _520
REMARK  211  A    between atoms: _519  and  _522
REMARK  212  A    between atoms: _522  and  _523
REMARK  213  A    between atoms: _523  and  _524
REMARK  214  A    between atoms: _524  and  _525
REMARK  215  A    between atoms: _525  and  _526
REMARK  216  A    between atoms: _530  and  _532
REMARK  217  A    between atoms: _532  and  _533
REMARK  218  A    between atoms: _532  and  _535
REMARK  219  A    between atoms: _535  and  _536
REMARK                            x       y       z     vdW  Elec       q    Type
REMARK                         _______ _______ _______ _____ _____    ______ ____
ROOT
ATOM      1  C   GLU A   3      35.219 -20.671  16.489  0.00  0.00    +0.241 C 
ATOM      2  N   MET A   4      34.950 -19.402  16.801  0.00  0.00    -0.297 N 
ATOM      3  H   MET A   4      35.549 -18.917  17.499  0.00  0.00    +0.150 HD
ATOM      4  O   GLU A   3      34.569 -21.341  15.711  0.00  0.00    -0.273 OA
ENDROOT
BRANCH   1   5
ATOM      5  CA  GLU A   3      36.391 -21.304  17.181  0.00  0.00    +0.149 C 
BRANCH   5   8
ATOM      6  C   THR A   2      35.630 -22.856  18.881  0.00  0.00    +0.243 C 
ATOM      7  O   THR A   2      35.510 -21.965  19.716  0.00  0.00    -0.273 OA
ATOM      8  N   GLU A   3      36.019 -22.628  17.630  0.00  0.00    -0.297 N 
ATOM      9  H   GLU A   3      36.057 -23.421  16.958  0.00  0.00    +0.150 HD
BRANCH   6  10
ATOM     10  CA  THR A   2      35.308 -24.301  19.269  0.00  0.00    +0.176 C 
BRANCH  10  13
ATOM     11  C   LEU A   1      32.991 -24.389  19.971  0.00  0.00    +0.238 C 
ATOM     12  O   LEU A   1      33.262 -24.100  21.153  0.00  0.00    -0.274 OA
ATOM     13  N   THR A   2      33.910 -24.509  19.004  0.00  0.00    -0.295 N 
ATOM     14  H   THR A   2      33.606 -24.758  18.041  0.00  0.00    +0.150 HD
BRANCH  11  15
ATOM     15  CA  LEU A   1      31.563 -24.621  19.522  0.00  0.00    +0.145 C 
BRANCH  15  16
ATOM     16  N   LEU A   1      31.033 -25.763  20.270  0.00  0.00    -0.238 NA
ATOM     17  H   LEU A   1      30.407 -25.590  21.082  0.00  0.00    +0.142 HD
ENDBRANCH  15  16
BRANCH  15  18
ATOM     18  CB  LEU A   1      30.676 -23.392  19.813  0.00  0.00    +0.026 C 
BRANCH  18  19
ATOM     19  CG  LEU A   1      31.085 -22.055  19.178  0.00  0.00    +0.002 C 
ATOM     20  CD2 LEU A   1      30.001 -21.019  19.573  0.00  0.00    +0.000 C 
ATOM     21  CD1 LEU A   1      31.217 -22.185  17.644  0.00  0.00    +0.000 C 
ENDBRANCH  18  19
ENDBRANCH  15  18
ENDBRANCH  11  15
ENDBRANCH  10  13
BRANCH  10  22
ATOM     22  CB  THR A   2      36.150 -25.324  18.496  0.00  0.00    +0.137 C 
ATOM     23  CG2 THR A   2      35.875 -26.754  19.066  0.00  0.00    +0.034 C 
BRANCH  22  24
ATOM     24  OG1 THR A   2      35.801 -25.266  17.105  0.00  0.00    -0.382 OA
ATOM     25  HG1 THR A   2      34.840 -25.477  16.998  0.00  0.00    +0.210 HD
ENDBRANCH  22  24
ENDBRANCH  10  22
ENDBRANCH   6  10
ENDBRANCH   5   8
BRANCH   5  26
ATOM     26  CB  GLU A   3      37.588 -21.378  16.217  0.00  0.00    +0.041 C 
BRANCH  26  27
ATOM     27  CG  GLU A   3      38.087 -19.972  15.803  0.00  0.00    +0.116 C 
BRANCH  27  28
ATOM     28  CD  GLU A   3      39.374 -19.993  15.005  0.00  0.00    +0.365 C 
ATOM     29  OE2 GLU A   3      40.153 -20.915  15.230  0.00  0.00    -0.246 OA
ATOM     30  OE1 GLU A   3      39.600 -19.073  14.193  0.00  0.00    -0.246 OA
ENDBRANCH  27  28
ENDBRANCH  26  27
ENDBRANCH   5  26
ENDBRANCH   1   5
BRANCH   2  31
ATOM     31  CA  MET A   4      33.825 -18.663  16.184  0.00  0.00    +0.149 C 
BRANCH  31  32
ATOM     32  C   MET A   4      34.274 -18.038  14.872  0.00  0.00    +0.241 C 
ATOM     33  O   MET A   4      35.465 -17.950  14.571  0.00  0.00    -0.273 OA
ATOM     34  N   SER A   5      33.280 -17.651  14.073  0.00  0.00    -0.295 N 
ATOM     35  H   SER A   5      32.306 -17.651  14.438  0.00  0.00    +0.150 HD
BRANCH  34  36
ATOM     36  CA  SER A   5      33.525 -17.226  12.693  0.00  0.00    +0.178 C 
BRANCH  36  37
ATOM     37  C   SER A   5      33.739 -15.734  12.490  0.00  0.00    +0.243 C 
ATOM     38  N   HIS A   6      33.397 -14.880  13.475  0.00  0.00    -0.298 N 
ATOM     39  H   HIS A   6      33.083 -15.254  14.393  0.00  0.00    +0.150 HD
ATOM     40  O   SER A   5      34.176 -15.340  11.385  0.00  0.00    -0.273 OA
BRANCH  38  41
ATOM     41  CA  HIS A   6      33.461 -13.443  13.270  0.00  0.00    +0.143 C 
BRANCH  41  42
ATOM     42  C   HIS A   6      34.873 -12.879  13.580  0.00  0.00    +0.227 C 
ATOM     43  O   HIS A   6      35.715 -13.553  14.185  0.00  0.00    -0.286 OA
ENDBRANCH  41  42
BRANCH  41  44
ATOM     44  CB  HIS A   6      32.405 -12.773  14.195  0.00  0.00    +0.075 C 
BRANCH  44  45
ATOM     45  CG  HIS A   6      32.717 -12.980  15.636  0.00  0.00    +0.082 A 
ATOM     46  CD2 HIS A   6      33.038 -12.101  16.615  0.00  0.00    +0.115 A 
ATOM     47  NE2 HIS A   6      33.304 -12.835  17.752  0.00  0.00    -0.221 NA
ATOM     48  CE1 HIS A   6      33.133 -14.121  17.478  0.00  0.00    +0.199 A 
ATOM     49  ND1 HIS A   6      32.771 -14.247  16.206  0.00  0.00    -0.227 NA
ENDBRANCH  44  45
ENDBRANCH  41  44
ENDBRANCH  38  41
ENDBRANCH  36  37
BRANCH  36  50
ATOM     50  CB  SER A   5      32.333 -17.679  11.803  0.00  0.00    +0.166 C 
BRANCH  50  51
ATOM     51  OG  SER A   5      31.134 -17.058  12.265  0.00  0.00    -0.380 OA
ATOM     52  H   SER A   5      31.232 -16.074  12.212  0.00  0.00    +0.211 HD
ENDBRANCH  50  51
ENDBRANCH  36  50
ENDBRANCH  34  36
ENDBRANCH  31  32
BRANCH  31  53
ATOM     53  CB  MET A   4      33.322 -17.603  17.136  0.00  0.00    +0.041 C 
BRANCH  53  54
ATOM     54  CG  MET A   4      32.653 -18.207  18.360  0.00  0.00    +0.060 C 
BRANCH  54  55
ATOM     55  SD  MET A   4      32.069 -16.937  19.492  0.00  0.00    -0.139 S 
ATOM     56  CE  MET A   4      30.599 -16.273  18.634  0.00  0.00    +0.069 C 
ENDBRANCH  54  55
ENDBRANCH  53  54
ENDBRANCH  31  53
ENDBRANCH   2  31
TORSDOF 26
REMARK  Name = ../refined-set-2016/2zz2/2zz2_pocket.pdb
REMARK  219 active torsions:
REMARK  status: ('A' for Active; 'I' for Inactive)
REMARK    1  A    between atoms: _1  and  _3
REMARK    2  A    between atoms: _3  and  _4
REMARK    3  A    between atoms: _3  and  _6
REMARK    4  A    between atoms: _6  and  _7
REMARK    5  A    between atoms: _10  and  _12
REMARK    6  A    between atoms: _12  and  _13
REMARK    7  A    between atoms: _12  and  _15
REMARK    8  A    between atoms: _15  and  _16
REMARK    9  A    between atoms: _19  and  _21
REMARK   10  A    between atoms: _21  and  _22
REMARK   11  A    between atoms: _25  and  _27
REMARK   12  A    between atoms: _27  and  _28
REMARK   13  A    between atoms: _27  and  _30
REMARK   14  A    between atoms: _30  and  _31
REMARK   15  A    between atoms: _31  and  _32
REMARK   16  A    between atoms: _34  and  _36
REMARK   17  A    between atoms: _36  and  _37
REMARK   18  A    between atoms: _36  and  _39
REMARK   19  A    between atoms: _39  and  _40
REMARK   20  A    between atoms: _43  and  _45
REMARK   21  A    between atoms: _45  and  _46
REMARK   22  A    between atoms: _45  and  _48
REMARK   23  A    between atoms: _48  and  _49
REMARK   24  A    between atoms: _49  and  _50
REMARK   25  A    between atoms: _50  and  _51
REMARK   26  A    between atoms: _51  and  _52
REMARK   27  A    between atoms: _56  and  _58
REMARK   28  A    between atoms: _58  and  _59
REMARK   29  A    between atoms: _58  and  _61
REMARK   30  A    between atoms: _61  and  _62
REMARK   31  A    between atoms: _65  and  _67
REMARK   32  A    between atoms: _67  and  _68
REMARK   33  A    between atoms: _70  and  _72
REMARK   34  A    between atoms: _72  and  _73
REMARK   35  A    between atoms: _72  and  _75
REMARK   36  A    between atoms: _75  and  _76
REMARK   37  A    between atoms: _81  and  _82
REMARK   38  A    between atoms: _85  and  _86
REMARK   39  A    between atoms: _91  and  _93
REMARK   40  A    between atoms: _93  and  _94
REMARK   41  A    between atoms: _93  and  _96
REMARK   42  A    between atoms: _96  and  _97
REMARK   43  A    between atoms: _100  and  _102
REMARK   44  A    between atoms: _102  and  _103
REMARK   45  A    between atoms: _102  and  _105
REMARK   46  A    between atoms: _105  and  _106
REMARK   47  A    between atoms: _109  and  _111
REMARK   48  A    between atoms: _111  and  _112
REMARK   49  A    between atoms: _115  and  _117
REMARK   50  A    between atoms: _117  and  _118
REMARK   51  A    between atoms: _117  and  _120
REMARK   52  A    between atoms: _120  and  _121
REMARK   53  A    between atoms: _124  and  _126
REMARK   54  A    between atoms: _126  and  _127
REMARK   55  A    between atoms: _126  and  _129
REMARK   56  A    between atoms: _129  and  _130
REMARK   57  A    between atoms: _136  and  _138
REMARK   58  A    between atoms: _138  and  _139
REMARK   59  A    between atoms: _142  and  _144
REMARK   60  A    between atoms: _144  and  _145
REMARK   61  A    between atoms: _144  and  _147
REMARK   62  A    between atoms: _147  and  _148
REMARK   63  A    between atoms: _151  and  _153
REMARK   64  A    between atoms: _153  and  _154
REMARK   65  A    between atoms: _153  and  _156
REMARK   66  A    between atoms: _159  and  _161
REMARK   67  A    between atoms: _161  and  _162
REMARK   68  A    between atoms: _161  and  _164
REMARK   69  A    between atoms: _164  and  _165
REMARK   70  A    between atoms: _170  and  _172
REMARK   71  A    between atoms: _172  and  _173
REMARK   72  A    between atoms: _172  and  _175
REMARK   73  A    between atoms: _175  and  _176
REMARK   74  A    between atoms: _182  and  _184
REMARK   75  A    between atoms: _184  and  _185
REMARK   76  A    between atoms: _184  and  _187
REMARK   77  A    between atoms: _187  and  _188
REMARK   78  A    between atoms: _191  and  _193
REMARK   79  A    between atoms: _193  and  _194
REMARK   80  A    between atoms: _193  and  _196
REMARK   81  A    between atoms: _196  and  _197
REMARK   82  A    between atoms: _200  and  _202
REMARK   83  A    between atoms: _202  and  _203
REMARK   84  A    between atoms: _202  and  _205
REMARK   85  A    between atoms: _205  and  _206
REMARK   86  A    between atoms: _206  and  _207
REMARK   87  A    between atoms: _210  and  _212
REMARK   88  A    between atoms: _212  and  _213
REMARK   89  A    between atoms: _212  and  _215
REMARK   90  A    between atoms: _215  and  _216
REMARK   91  A    between atoms: _216  and  _217
REMARK   92  A    between atoms: _219  and  _221
REMARK   93  A    between atoms: _221  and  _222
REMARK   94  A    between atoms: _221  and  _224
REMARK   95  A    between atoms: _224  and  _225
REMARK   96  A    between atoms: _227  and  _229
REMARK   97  A    between atoms: _229  and  _230
REMARK   98  A    between atoms: _229  and  _232
REMARK   99  A    between atoms: _232  and  _233
REMARK  100  A    between atoms: _238  and  _240
REMARK  101  A    between atoms: _240  and  _241
REMARK  102  A    between atoms: _244  and  _246
REMARK  103  A    between atoms: _246  and  _247
REMARK  104  A    between atoms: _246  and  _249
REMARK  105  A    between atoms: _249  and  _250
REMARK  106  A    between atoms: _253  and  _255
REMARK  107  A    between atoms: _255  and  _256
REMARK  108  A    between atoms: _255  and  _258
REMARK  109  A    between atoms: _261  and  _263
REMARK  110  A    between atoms: _263  and  _264
REMARK  111  A    between atoms: _267  and  _268
REMARK  112  A    between atoms: _273  and  _275
REMARK  113  A    between atoms: _275  and  _276
REMARK  114  A    between atoms: _275  and  _278
REMARK  115  A    between atoms: _278  and  _279
REMARK  116  A    between atoms: _281  and  _283
REMARK  117  A    between atoms: _283  and  _284
REMARK  118  A    between atoms: _283  and  _286
REMARK  119  A    between atoms: _286  and  _287
REMARK  120  A    between atoms: _290  and  _292
REMARK  121  A    between atoms: _292  and  _293
REMARK  122  A    between atoms: _292  and  _295
REMARK  123  A    between atoms: _295  and  _296
REMARK  124  A    between atoms: _296  and  _297
REMARK  125  A    between atoms: _297  and  _298
REMARK  126  A    between atoms: _307  and  _309
REMARK  127  A    between atoms: _309  and  _310
REMARK  128  A    between atoms: _309  and  _312
REMARK  129  A    between atoms: _312  and  _313
REMARK  130  A    between atoms: _316  and  _318
REMARK  131  A    between atoms: _318  and  _319
REMARK  132  A    between atoms: _318  and  _321
REMARK  133  A    between atoms: _321  and  _322
REMARK  134  A    between atoms: _325  and  _326
REMARK  135  A    between atoms: _331  and  _333
REMARK  136  A    between atoms: _333  and  _334
REMARK  137  A    between atoms: _336  and  _338
REMARK  138  A    between atoms: _338  and  _339
REMARK  139  A    between atoms: _338  and  _341
REMARK  140  A    between atoms: _344  and  _346
REMARK  141  A    between atoms: _346  and  _347
REMARK  142  A    between atoms: _349  and  _351
REMARK  143  A    between atoms: _351  and  _352
REMARK  144  A    between atoms: _355  and  _357
REMARK  145  A    between atoms: _357  and  _358
REMARK  146  A    between atoms: _357  and  _360
REMARK  147  A    between atoms: _360  and  _361
REMARK  148  A    between atoms: _361  and  _362
REMARK  149  A    between atoms: _367  and  _369
REMARK  150  A    between atoms: _369  and  _370
REMARK  151  A    between atoms: _372  and  _374
REMARK  152  A    between atoms: _374  and  _375
REMARK  153  A    between atoms: _377  and  _379
REMARK  154  A    between atoms: _379  and  _380
REMARK  155  A    between atoms: _379  and  _382
REMARK  156  A    between atoms: _382  and  _383
REMARK  157  A    between atoms: _386  and  _388
REMARK  158  A    between atoms: _388  and  _389
REMARK  159  A    between atoms: _388  and  _391
REMARK  160  A    between atoms: _394  and  _396
REMARK  161  A    between atoms: _396  and  _397
REMARK  162  A    between atoms: _399  and  _401
REMARK  163  A    between atoms: _401  and  _402
REMARK  164  A    between atoms: _401  and  _404
REMARK  165  A    between atoms: _404  and  _405
REMARK  166  A    between atoms: _405  and  _406
REMARK  167  A    between atoms: _406  and  _407
REMARK  168  A    between atoms: _416  and  _418
REMARK  169  A    between atoms: _418  and  _419
REMARK  170  A    between atoms: _418  and  _421
REMARK  171  A    between atoms: _421  and  _422
REMARK  172  A    between atoms: _424  and  _426
REMARK  173  A    between atoms: _426  and  _427
REMARK  174  A    between atoms: _426  and  _429
REMARK  175  A    between atoms: _429  and  _430
REMARK  176  A    between atoms: _433  and  _435
REMARK  177  A    between atoms: _435  and  _436
REMARK  178  A    between atoms: _435  and  _438
REMARK  179  A    between atoms: _438  and  _439
REMARK  180  A    between atoms: _444  and  _445
REMARK  181  A    between atoms: _447  and  _449
REMARK  182  A    between atoms: _449  and  _450
REMARK  183  A    between atoms: _449  and  _452
REMARK  184  A    between atoms: _452  and  _453
REMARK  185  A    between atoms: _456  and  _458
REMARK  186  A    between atoms: _458  and  _459
REMARK  187  A    between atoms: _462  and  _464
REMARK  188  A    between atoms: _464  and  _465
REMARK  189  A    between atoms: _464  and  _467
REMARK  190  A    between atoms: _467  and  _468
REMARK  191  A    between atoms: _471  and  _473
REMARK  192  A    between atoms: _473  and  _474
REMARK  193  A    between atoms: _473  and  _476
REMARK  194  A    between atoms: _476  and  _477
REMARK  195  A    between atoms: _481  and  _482
REMARK  196  A    between atoms: _487  and  _489
REMARK  197  A    between atoms: _489  and  _490
REMARK  198  A    between atoms: _489  and  _492
REMARK  199  A    between atoms: _492  and  _493
REMARK  200  A    between atoms: _493  and  _494
REMARK  201  A    between atoms: _497  and  _499
REMARK  202  A    between atoms: _499  and  _500
REMARK  203  A    between atoms: _499  and  _502
REMARK  204  A    between atoms: _502  and  _503
REMARK  205  A    between atoms: _506  and  _508
REMARK  206  A    between atoms: _508  and  _509
REMARK  207  A    between atoms: _508  and  _511
REMARK  208  A    between atoms: _511  and  _512
REMARK  209  A    between atoms: _517  and  _519
REMARK  210  A    between atoms: _519  and  _520
REMARK  211  A    between atoms: _519  and  _522
REMARK  212  A    between atoms: _522  and  _523
REMARK  213  A    between atoms: _523  and  _524
REMARK  214  A    between atoms: _524  and  _525
REMARK  215  A    between atoms: _525  and  _526
REMARK  216  A    between atoms: _530  and  _532
REMARK  217  A    between atoms: _532  and  _533
REMARK  218  A    between atoms: _532  and  _535
REMARK  219  A    between atoms: _535  and  _536
REMARK                            x       y       z     vdW  Elec       q    Type
REMARK                         _______ _______ _______ _____ _____    ______ ____
ROOT
ATOM      1  CA  ALA A   1      37.154 -14.534  17.463  0.00  0.00    +0.133 C 
ATOM      2  CB  ALA A   1      36.648 -15.606  16.550  0.00  0.00    +0.027 C 
ENDROOT
BRANCH   1   3
ATOM      3  N   ALA A   1      36.713 -13.193  17.000  0.00  0.00    -0.239 NA
ATOM      4  H   ALA A   1      36.143 -13.106  16.135  0.00  0.00    +0.142 HD
ENDBRANCH   1   3
BRANCH   1   5
ATOM      5  C   ALA A   1      38.692 -14.593  17.529  0.00  0.00    +0.224 C 
ATOM      6  O   ALA A   1      39.262 -15.447  18.224  0.00  0.00    -0.287 OA
ENDBRANCH   1   5
TORSDOF 2
REMARK  Name = ../refined-set-2016/2zz2/2zz2_pocket.pdb
REMARK  219 active torsions:
REMARK  status: ('A' for Active; 'I' for Inactive)
REMARK    1  A    between atoms: _1  and  _3
REMARK    2  A    between atoms: _3  and  _4
REMARK    3  A    between atoms: _3  and  _6
REMARK    4  A    between atoms: _6  and  _7
REMARK    5  A    between atoms: _10  and  _12
REMARK    6  A    between atoms: _12  and  _13
REMARK    7  A    between atoms: _12  and  _15
REMARK    8  A    between atoms: _15  and  _16
REMARK    9  A    between atoms: _19  and  _21
REMARK   10  A    between atoms: _21  and  _22
REMARK   11  A    between atoms: _25  and  _27
REMARK   12  A    between atoms: _27  and  _28
REMARK   13  A    between atoms: _27  and  _30
REMARK   14  A    between atoms: _30  and  _31
REMARK   15  A    between atoms: _31  and  _32
REMARK   16  A    between atoms: _34  and  _36
REMARK   17  A    between atoms: _36  and  _37
REMARK   18  A    between atoms: _36  and  _39
REMARK   19  A    between atoms: _39  and  _40
REMARK   20  A    between atoms: _43  and  _45
REMARK   21  A    between atoms: _45  and  _46
REMARK   22  A    between atoms: _45  and  _48
REMARK   23  A    between atoms: _48  and  _49
REMARK   24  A    between atoms: _49  and  _50
REMARK   25  A    between atoms: _50  and  _51
REMARK   26  A    between atoms: _51  and  _52
REMARK   27  A    between atoms: _56  and  _58
REMARK   28  A    between atoms: _58  and  _59
REMARK   29  A    between atoms: _58  and  _61
REMARK   30  A    between atoms: _61  and  _62
REMARK   31  A    between atoms: _65  and  _67
REMARK   32  A    between atoms: _67  and  _68
REMARK   33  A    between atoms: _70  and  _72
REMARK   34  A    between atoms: _72  and  _73
REMARK   35  A    between atoms: _72  and  _75
REMARK   36  A    between atoms: _75  and  _76
REMARK   37  A    between atoms: _81  and  _82
REMARK   38  A    between atoms: _85  and  _86
REMARK   39  A    between atoms: _91  and  _93
REMARK   40  A    between atoms: _93  and  _94
REMARK   41  A    between atoms: _93  and  _96
REMARK   42  A    between atoms: _96  and  _97
REMARK   43  A    between atoms: _100  and  _102
REMARK   44  A    between atoms: _102  and  _103
REMARK   45  A    between atoms: _102  and  _105
REMARK   46  A    between atoms: _105  and  _106
REMARK   47  A    between atoms: _109  and  _111
REMARK   48  A    between atoms: _111  and  _112
REMARK   49  A    between atoms: _115  and  _117
REMARK   50  A    between atoms: _117  and  _118
REMARK   51  A    between atoms: _117  and  _120
REMARK   52  A    between atoms: _120  and  _121
REMARK   53  A    between atoms: _124  and  _126
REMARK   54  A    between atoms: _126  and  _127
REMARK   55  A    between atoms: _126  and  _129
REMARK   56  A    between atoms: _129  and  _130
REMARK   57  A    between atoms: _136  and  _138
REMARK   58  A    between atoms: _138  and  _139
REMARK   59  A    between atoms: _142  and  _144
REMARK   60  A    between atoms: _144  and  _145
REMARK   61  A    between atoms: _144  and  _147
REMARK   62  A    between atoms: _147  and  _148
REMARK   63  A    between atoms: _151  and  _153
REMARK   64  A    between atoms: _153  and  _154
REMARK   65  A    between atoms: _153  and  _156
REMARK   66  A    between atoms: _159  and  _161
REMARK   67  A    between atoms: _161  and  _162
REMARK   68  A    between atoms: _161  and  _164
REMARK   69  A    between atoms: _164  and  _165
REMARK   70  A    between atoms: _170  and  _172
REMARK   71  A    between atoms: _172  and  _173
REMARK   72  A    between atoms: _172  and  _175
REMARK   73  A    between atoms: _175  and  _176
REMARK   74  A    between atoms: _182  and  _184
REMARK   75  A    between atoms: _184  and  _185
REMARK   76  A    between atoms: _184  and  _187
REMARK   77  A    between atoms: _187  and  _188
REMARK   78  A    between atoms: _191  and  _193
REMARK   79  A    between atoms: _193  and  _194
REMARK   80  A    between atoms: _193  and  _196
REMARK   81  A    between atoms: _196  and  _197
REMARK   82  A    between atoms: _200  and  _202
REMARK   83  A    between atoms: _202  and  _203
REMARK   84  A    between atoms: _202  and  _205
REMARK   85  A    between atoms: _205  and  _206
REMARK   86  A    between atoms: _206  and  _207
REMARK   87  A    between atoms: _210  and  _212
REMARK   88  A    between atoms: _212  and  _213
REMARK   89  A    between atoms: _212  and  _215
REMARK   90  A    between atoms: _215  and  _216
REMARK   91  A    between atoms: _216  and  _217
REMARK   92  A    between atoms: _219  and  _221
REMARK   93  A    between atoms: _221  and  _222
REMARK   94  A    between atoms: _221  and  _224
REMARK   95  A    between atoms: _224  and  _225
REMARK   96  A    between atoms: _227  and  _229
REMARK   97  A    between atoms: _229  and  _230
REMARK   98  A    between atoms: _229  and  _232
REMARK   99  A    between atoms: _232  and  _233
REMARK  100  A    between atoms: _238  and  _240
REMARK  101  A    between atoms: _240  and  _241
REMARK  102  A    between atoms: _244  and  _246
REMARK  103  A    between atoms: _246  and  _247
REMARK  104  A    between atoms: _246  and  _249
REMARK  105  A    between atoms: _249  and  _250
REMARK  106  A    between atoms: _253  and  _255
REMARK  107  A    between atoms: _255  and  _256
REMARK  108  A    between atoms: _255  and  _258
REMARK  109  A    between atoms: _261  and  _263
REMARK  110  A    between atoms: _263  and  _264
REMARK  111  A    between atoms: _267  and  _268
REMARK  112  A    between atoms: _273  and  _275
REMARK  113  A    between atoms: _275  and  _276
REMARK  114  A    between atoms: _275  and  _278
REMARK  115  A    between atoms: _278  and  _279
REMARK  116  A    between atoms: _281  and  _283
REMARK  117  A    between atoms: _283  and  _284
REMARK  118  A    between atoms: _283  and  _286
REMARK  119  A    between atoms: _286  and  _287
REMARK  120  A    between atoms: _290  and  _292
REMARK  121  A    between atoms: _292  and  _293
REMARK  122  A    between atoms: _292  and  _295
REMARK  123  A    between atoms: _295  and  _296
REMARK  124  A    between atoms: _296  and  _297
REMARK  125  A    between atoms: _297  and  _298
REMARK  126  A    between atoms: _307  and  _309
REMARK  127  A    between atoms: _309  and  _310
REMARK  128  A    between atoms: _309  and  _312
REMARK  129  A    between atoms: _312  and  _313
REMARK  130  A    between atoms: _316  and  _318
REMARK  131  A    between atoms: _318  and  _319
REMARK  132  A    between atoms: _318  and  _321
REMARK  133  A    between atoms: _321  and  _322
REMARK  134  A    between atoms: _325  and  _326
REMARK  135  A    between atoms: _331  and  _333
REMARK  136  A    between atoms: _333  and  _334
REMARK  137  A    between atoms: _336  and  _338
REMARK  138  A    between atoms: _338  and  _339
REMARK  139  A    between atoms: _338  and  _341
REMARK  140  A    between atoms: _344  and  _346
REMARK  141  A    between atoms: _346  and  _347
REMARK  142  A    between atoms: _349  and  _351
REMARK  143  A    between atoms: _351  and  _352
REMARK  144  A    between atoms: _355  and  _357
REMARK  145  A    between atoms: _357  and  _358
REMARK  146  A    between atoms: _357  and  _360
REMARK  147  A    between atoms: _360  and  _361
REMARK  148  A    between atoms: _361  and  _362
REMARK  149  A    between atoms: _367  and  _369
REMARK  150  A    between atoms: _369  and  _370
REMARK  151  A    between atoms: _372  and  _374
REMARK  152  A    between atoms: _374  and  _375
REMARK  153  A    between atoms: _377  and  _379
REMARK  154  A    between atoms: _379  and  _380
REMARK  155  A    between atoms: _379  and  _382
REMARK  156  A    between atoms: _382  and  _383
REMARK  157  A    between atoms: _386  and  _388
REMARK  158  A    between atoms: _388  and  _389
REMARK  159  A    between atoms: _388  and  _391
REMARK  160  A    between atoms: _394  and  _396
REMARK  161  A    between atoms: _396  and  _397
REMARK  162  A    between atoms: _399  and  _401
REMARK  163  A    between atoms: _401  and  _402
REMARK  164  A    between atoms: _401  and  _404
REMARK  165  A    between atoms: _404  and  _405
REMARK  166  A    between atoms: _405  and  _406
REMARK  167  A    between atoms: _406  and  _407
REMARK  168  A    between atoms: _416  and  _418
REMARK  169  A    between atoms: _418  and  _419
REMARK  170  A    between atoms: _418  and  _421
REMARK  171  A    between atoms: _421  and  _422
REMARK  172  A    between atoms: _424  and  _426
REMARK  173  A    between atoms: _426  and  _427
REMARK  174  A    between atoms: _426  and  _429
REMARK  175  A    between atoms: _429  and  _430
REMARK  176  A    between atoms: _433  and  _435
REMARK  177  A    between atoms: _435  and  _436
REMARK  178  A    between atoms: _435  and  _438
REMARK  179  A    between atoms: _438  and  _439
REMARK  180  A    between atoms: _444  and  _445
REMARK  181  A    between atoms: _447  and  _449
REMARK  182  A    between atoms: _449  and  _450
REMARK  183  A    between atoms: _449  and  _452
REMARK  184  A    between atoms: _452  and  _453
REMARK  185  A    between atoms: _456  and  _458
REMARK  186  A    between atoms: _458  and  _459
REMARK  187  A    between atoms: _462  and  _464
REMARK  188  A    between atoms: _464  and  _465
REMARK  189  A    between atoms: _464  and  _467
REMARK  190  A    between atoms: _467  and  _468
REMARK  191  A    between atoms: _471  and  _473
REMARK  192  A    between atoms: _473  and  _474
REMARK  193  A    between atoms: _473  and  _476
REMARK  194  A    between atoms: _476  and  _477
REMARK  195  A    between atoms: _481  and  _482
REMARK  196  A    between atoms: _487  and  _489
REMARK  197  A    between atoms: _489  and  _490
REMARK  198  A    between atoms: _489  and  _492
REMARK  199  A    between atoms: _492  and  _493
REMARK  200  A    between atoms: _493  and  _494
REMARK  201  A    between atoms: _497  and  _499
REMARK  202  A    between atoms: _499  and  _500
REMARK  203  A    between atoms: _499  and  _502
REMARK  204  A    between atoms: _502  and  _503
REMARK  205  A    between atoms: _506  and  _508
REMARK  206  A    between atoms: _508  and  _509
REMARK  207  A    between atoms: _508  and  _511
REMARK  208  A    between atoms: _511  and  _512
REMARK  209  A    between atoms: _517  and  _519
REMARK  210  A    between atoms: _519  and  _520
REMARK  211  A    between atoms: _519  and  _522
REMARK  212  A    between atoms: _522  and  _523
REMARK  213  A    between atoms: _523  and  _524
REMARK  214  A    between atoms: _524  and  _525
REMARK  215  A    between atoms: _525  and  _526
REMARK  216  A    between atoms: _530  and  _532
REMARK  217  A    between atoms: _532  and  _533
REMARK  218  A    between atoms: _532  and  _535
REMARK  219  A    between atoms: _535  and  _536
REMARK                            x       y       z     vdW  Elec       q    Type
REMARK                         _______ _______ _______ _____ _____    ______ ____
ROOT
ATOM      1  CA  ILE A   1      39.006 -17.693  21.160  0.00  0.00    +0.133 C 
ENDROOT
BRANCH   1   2
ATOM      2  N   ILE A   1      39.449 -16.316  21.401  0.00  0.00    -0.239 NA
ATOM      3  H   ILE A   1      38.957 -15.515  20.956  0.00  0.00    +0.142 HD
ENDBRANCH   1   2
BRANCH   1   4
ATOM      4  CB  ILE A   1      37.615 -17.736  20.554  0.00  0.00    +0.023 C 
ATOM      5  CG2 ILE A   1      37.307 -19.122  20.078  0.00  0.00    +0.002 C 
BRANCH   4   6
ATOM      6  CG1 ILE A   1      36.582 -17.262  21.568  0.00  0.00    +0.002 C 
ATOM      7  CD1 ILE A   1      35.179 -17.131  20.926  0.00  0.00    +0.000 C 
ENDBRANCH   4   6
ENDBRANCH   1   4
BRANCH   1   8
ATOM      8  C   ILE A   1      39.952 -18.500  20.278  0.00  0.00    +0.224 C 
ATOM      9  O   ILE A   1      40.243 -19.668  20.538  0.00  0.00    -0.287 OA
ENDBRANCH   1   8
TORSDOF 4
REMARK  Name = ../refined-set-2016/2zz2/2zz2_pocket.pdb
REMARK  219 active torsions:
REMARK  status: ('A' for Active; 'I' for Inactive)
REMARK    1  A    between atoms: _1  and  _3
REMARK    2  A    between atoms: _3  and  _4
REMARK    3  A    between atoms: _3  and  _6
REMARK    4  A    between atoms: _6  and  _7
REMARK    5  A    between atoms: _10  and  _12
REMARK    6  A    between atoms: _12  and  _13
REMARK    7  A    between atoms: _12  and  _15
REMARK    8  A    between atoms: _15  and  _16
REMARK    9  A    between atoms: _19  and  _21
REMARK   10  A    between atoms: _21  and  _22
REMARK   11  A    between atoms: _25  and  _27
REMARK   12  A    between atoms: _27  and  _28
REMARK   13  A    between atoms: _27  and  _30
REMARK   14  A    between atoms: _30  and  _31
REMARK   15  A    between atoms: _31  and  _32
REMARK   16  A    between atoms: _34  and  _36
REMARK   17  A    between atoms: _36  and  _37
REMARK   18  A    between atoms: _36  and  _39
REMARK   19  A    between atoms: _39  and  _40
REMARK   20  A    between atoms: _43  and  _45
REMARK   21  A    between atoms: _45  and  _46
REMARK   22  A    between atoms: _45  and  _48
REMARK   23  A    between atoms: _48  and  _49
REMARK   24  A    between atoms: _49  and  _50
REMARK   25  A    between atoms: _50  and  _51
REMARK   26  A    between atoms: _51  and  _52
REMARK   27  A    between atoms: _56  and  _58
REMARK   28  A    between atoms: _58  and  _59
REMARK   29  A    between atoms: _58  and  _61
REMARK   30  A    between atoms: _61  and  _62
REMARK   31  A    between atoms: _65  and  _67
REMARK   32  A    between atoms: _67  and  _68
REMARK   33  A    between atoms: _70  and  _72
REMARK   34  A    between atoms: _72  and  _73
REMARK   35  A    between atoms: _72  and  _75
REMARK   36  A    between atoms: _75  and  _76
REMARK   37  A    between atoms: _81  and  _82
REMARK   38  A    between atoms: _85  and  _86
REMARK   39  A    between atoms: _91  and  _93
REMARK   40  A    between atoms: _93  and  _94
REMARK   41  A    between atoms: _93  and  _96
REMARK   42  A    between atoms: _96  and  _97
REMARK   43  A    between atoms: _100  and  _102
REMARK   44  A    between atoms: _102  and  _103
REMARK   45  A    between atoms: _102  and  _105
REMARK   46  A    between atoms: _105  and  _106
REMARK   47  A    between atoms: _109  and  _111
REMARK   48  A    between atoms: _111  and  _112
REMARK   49  A    between atoms: _115  and  _117
REMARK   50  A    between atoms: _117  and  _118
REMARK   51  A    between atoms: _117  and  _120
REMARK   52  A    between atoms: _120  and  _121
REMARK   53  A    between atoms: _124  and  _126
REMARK   54  A    between atoms: _126  and  _127
REMARK   55  A    between atoms: _126  and  _129
REMARK   56  A    between atoms: _129  and  _130
REMARK   57  A    between atoms: _136  and  _138
REMARK   58  A    between atoms: _138  and  _139
REMARK   59  A    between atoms: _142  and  _144
REMARK   60  A    between atoms: _144  and  _145
REMARK   61  A    between atoms: _144  and  _147
REMARK   62  A    between atoms: _147  and  _148
REMARK   63  A    between atoms: _151  and  _153
REMARK   64  A    between atoms: _153  and  _154
REMARK   65  A    between atoms: _153  and  _156
REMARK   66  A    between atoms: _159  and  _161
REMARK   67  A    between atoms: _161  and  _162
REMARK   68  A    between atoms: _161  and  _164
REMARK   69  A    between atoms: _164  and  _165
REMARK   70  A    between atoms: _170  and  _172
REMARK   71  A    between atoms: _172  and  _173
REMARK   72  A    between atoms: _172  and  _175
REMARK   73  A    between atoms: _175  and  _176
REMARK   74  A    between atoms: _182  and  _184
REMARK   75  A    between atoms: _184  and  _185
REMARK   76  A    between atoms: _184  and  _187
REMARK   77  A    between atoms: _187  and  _188
REMARK   78  A    between atoms: _191  and  _193
REMARK   79  A    between atoms: _193  and  _194
REMARK   80  A    between atoms: _193  and  _196
REMARK   81  A    between atoms: _196  and  _197
REMARK   82  A    between atoms: _200  and  _202
REMARK   83  A    between atoms: _202  and  _203
REMARK   84  A    between atoms: _202  and  _205
REMARK   85  A    between atoms: _205  and  _206
REMARK   86  A    between atoms: _206  and  _207
REMARK   87  A    between atoms: _210  and  _212
REMARK   88  A    between atoms: _212  and  _213
REMARK   89  A    between atoms: _212  and  _215
REMARK   90  A    between atoms: _215  and  _216
REMARK   91  A    between atoms: _216  and  _217
REMARK   92  A    between atoms: _219  and  _221
REMARK   93  A    between atoms: _221  and  _222
REMARK   94  A    between atoms: _221  and  _224
REMARK   95  A    between atoms: _224  and  _225
REMARK   96  A    between atoms: _227  and  _229
REMARK   97  A    between atoms: _229  and  _230
REMARK   98  A    between atoms: _229  and  _232
REMARK   99  A    between atoms: _232  and  _233
REMARK  100  A    between atoms: _238  and  _240
REMARK  101  A    between atoms: _240  and  _241
REMARK  102  A    between atoms: _244  and  _246
REMARK  103  A    between atoms: _246  and  _247
REMARK  104  A    between atoms: _246  and  _249
REMARK  105  A    between atoms: _249  and  _250
REMARK  106  A    between atoms: _253  and  _255
REMARK  107  A    between atoms: _255  and  _256
REMARK  108  A    between atoms: _255  and  _258
REMARK  109  A    between atoms: _261  and  _263
REMARK  110  A    between atoms: _263  and  _264
REMARK  111  A    between atoms: _267  and  _268
REMARK  112  A    between atoms: _273  and  _275
REMARK  113  A    between atoms: _275  and  _276
REMARK  114  A    between atoms: _275  and  _278
REMARK  115  A    between atoms: _278  and  _279
REMARK  116  A    between atoms: _281  and  _283
REMARK  117  A    between atoms: _283  and  _284
REMARK  118  A    between atoms: _283  and  _286
REMARK  119  A    between atoms: _286  and  _287
REMARK  120  A    between atoms: _290  and  _292
REMARK  121  A    between atoms: _292  and  _293
REMARK  122  A    between atoms: _292  and  _295
REMARK  123  A    between atoms: _295  and  _296
REMARK  124  A    between atoms: _296  and  _297
REMARK  125  A    between atoms: _297  and  _298
REMARK  126  A    between atoms: _307  and  _309
REMARK  127  A    between atoms: _309  and  _310
REMARK  128  A    between atoms: _309  and  _312
REMARK  129  A    between atoms: _312  and  _313
REMARK  130  A    between atoms: _316  and  _318
REMARK  131  A    between atoms: _318  and  _319
REMARK  132  A    between atoms: _318  and  _321
REMARK  133  A    between atoms: _321  and  _322
REMARK  134  A    between atoms: _325  and  _326
REMARK  135  A    between atoms: _331  and  _333
REMARK  136  A    between atoms: _333  and  _334
REMARK  137  A    between atoms: _336  and  _338
REMARK  138  A    between atoms: _338  and  _339
REMARK  139  A    between atoms: _338  and  _341
REMARK  140  A    between atoms: _344  and  _346
REMARK  141  A    between atoms: _346  and  _347
REMARK  142  A    between atoms: _349  and  _351
REMARK  143  A    between atoms: _351  and  _352
REMARK  144  A    between atoms: _355  and  _357
REMARK  145  A    between atoms: _357  and  _358
REMARK  146  A    between atoms: _357  and  _360
REMARK  147  A    between atoms: _360  and  _361
REMARK  148  A    between atoms: _361  and  _362
REMARK  149  A    between atoms: _367  and  _369
REMARK  150  A    between atoms: _369  and  _370
REMARK  151  A    between atoms: _372  and  _374
REMARK  152  A    between atoms: _374  and  _375
REMARK  153  A    between atoms: _377  and  _379
REMARK  154  A    between atoms: _379  and  _380
REMARK  155  A    between atoms: _379  and  _382
REMARK  156  A    between atoms: _382  and  _383
REMARK  157  A    between atoms: _386  and  _388
REMARK  158  A    between atoms: _388  and  _389
REMARK  159  A    between atoms: _388  and  _391
REMARK  160  A    between atoms: _394  and  _396
REMARK  161  A    between atoms: _396  and  _397
REMARK  162  A    between atoms: _399  and  _401
REMARK  163  A    between atoms: _401  and  _402
REMARK  164  A    between atoms: _401  and  _404
REMARK  165  A    between atoms: _404  and  _405
REMARK  166  A    between atoms: _405  and  _406
REMARK  167  A    between atoms: _406  and  _407
REMARK  168  A    between atoms: _416  and  _418
REMARK  169  A    between atoms: _418  and  _419
REMARK  170  A    between atoms: _418  and  _421
REMARK  171  A    between atoms: _421  and  _422
REMARK  172  A    between atoms: _424  and  _426
REMARK  173  A    between atoms: _426  and  _427
REMARK  174  A    between atoms: _426  and  _429
REMARK  175  A    between atoms: _429  and  _430
REMARK  176  A    between atoms: _433  and  _435
REMARK  177  A    between atoms: _435  and  _436
REMARK  178  A    between atoms: _435  and  _438
REMARK  179  A    between atoms: _438  and  _439
REMARK  180  A    between atoms: _444  and  _445
REMARK  181  A    between atoms: _447  and  _449
REMARK  182  A    between atoms: _449  and  _450
REMARK  183  A    between atoms: _449  and  _452
REMARK  184  A    between atoms: _452  and  _453
REMARK  185  A    between atoms: _456  and  _458
REMARK  186  A    between atoms: _458  and  _459
REMARK  187  A    between atoms: _462  and  _464
REMARK  188  A    between atoms: _464  and  _465
REMARK  189  A    between atoms: _464  and  _467
REMARK  190  A    between atoms: _467  and  _468
REMARK  191  A    between atoms: _471  and  _473
REMARK  192  A    between atoms: _473  and  _474
REMARK  193  A    between atoms: _473  and  _476
REMARK  194  A    between atoms: _476  and  _477
REMARK  195  A    between atoms: _481  and  _482
REMARK  196  A    between atoms: _487  and  _489
REMARK  197  A    between atoms: _489  and  _490
REMARK  198  A    between atoms: _489  and  _492
REMARK  199  A    between atoms: _492  and  _493
REMARK  200  A    between atoms: _493  and  _494
REMARK  201  A    between atoms: _497  and  _499
REMARK  202  A    between atoms: _499  and  _500
REMARK  203  A    between atoms: _499  and  _502
REMARK  204  A    between atoms: _502  and  _503
REMARK  205  A    between atoms: _506  and  _508
REMARK  206  A    between atoms: _508  and  _509
REMARK  207  A    between atoms: _508  and  _511
REMARK  208  A    between atoms: _511  and  _512
REMARK  209  A    between atoms: _517  and  _519
REMARK  210  A    between atoms: _519  and  _520
REMARK  211  A    between atoms: _519  and  _522
REMARK  212  A    between atoms: _522  and  _523
REMARK  213  A    between atoms: _523  and  _524
REMARK  214  A    between atoms: _524  and  _525
REMARK  215  A    between atoms: _525  and  _526
REMARK  216  A    between atoms: _530  and  _532
REMARK  217  A    between atoms: _532  and  _533
REMARK  218  A    between atoms: _532  and  _535
REMARK  219  A    between atoms: _535  and  _536
REMARK                            x       y       z     vdW  Elec       q    Type
REMARK                         _______ _______ _______ _____ _____    ______ ____
ROOT
ATOM      1  C   SER A   4      34.580 -20.139   6.998  0.00  0.00    +0.243 C 
ATOM      2  N   THR A   5      34.642 -19.037   7.734  0.00  0.00    -0.295 N 
ATOM      3  H   THR A   5      34.101 -19.006   8.621  0.00  0.00    +0.150 HD
ATOM      4  O   SER A   4      35.201 -20.267   5.938  0.00  0.00    -0.273 OA
ENDROOT
BRANCH   2   5
ATOM      5  CA  THR A   5      35.428 -17.870   7.364  0.00  0.00    +0.176 C 
BRANCH   5   6
ATOM      6  C   THR A   5      36.950 -18.132   7.462  0.00  0.00    +0.243 C 
ATOM      7  N   ARG A   6      37.358 -19.249   8.087  0.00  0.00    -0.298 N 
ATOM      8  H   ARG A   6      36.651 -19.892   8.497  0.00  0.00    +0.150 HD
ATOM      9  O   THR A   5      37.758 -17.303   6.994  0.00  0.00    -0.273 OA
BRANCH   7  10
ATOM     10  CA  ARG A   6      38.794 -19.582   8.203  0.00  0.00    +0.137 C 
BRANCH  10  11
ATOM     11  C   ARG A   6      39.013 -21.063   7.880  0.00  0.00    +0.227 C 
ATOM     12  O   ARG A   6      39.197 -21.902   8.781  0.00  0.00    -0.286 OA
ENDBRANCH  10  11
BRANCH  10  13
ATOM     13  CB  ARG A   6      39.307 -19.259   9.605  0.00  0.00    +0.031 C 
BRANCH  13  14
ATOM     14  CG  ARG A   6      39.130 -17.795  10.038  0.00  0.00    +0.045 C 
BRANCH  14  15
ATOM     15  CD  ARG A   6      39.882 -17.512  11.354  0.00  0.00    +0.174 C 
BRANCH  15  16
ATOM     16  NE  ARG A   6      39.368 -16.220  11.761  0.00  0.00    -0.265 N 
ATOM     17  CZ  ARG A   6      38.307 -16.035  12.547  0.00  0.00    +0.342 C 
ATOM     18  NH2 ARG A   6      37.754 -17.044  13.224  0.00  0.00    -0.292 N 
ATOM     19 HH21 ARG A   6      36.927 -16.872  13.830  0.00  0.00    +0.255 HD
ATOM     20 HH22 ARG A   6      38.151 -18.002  13.145  0.00  0.00    +0.255 HD
ATOM     21  NH1 ARG A   6      37.812 -14.823  12.644  0.00  0.00    -0.292 N 
ATOM     22 HH11 ARG A   6      36.985 -14.646  13.249  0.00  0.00    +0.255 HD
ATOM     23 HH12 ARG A   6      38.247 -14.040  12.116  0.00  0.00    +0.255 HD
ATOM     24  HE  ARG A   6      39.863 -15.374  11.414  0.00  0.00    +0.259 HD
ENDBRANCH  15  16
ENDBRANCH  14  15
ENDBRANCH  13  14
ENDBRANCH  10  13
ENDBRANCH   7  10
ENDBRANCH   5   6
BRANCH   5  25
ATOM     25  CB  THR A   5      35.084 -16.707   8.290  0.00  0.00    +0.137 C 
ATOM     26  CG2 THR A   5      33.635 -16.211   8.001  0.00  0.00    +0.034 C 
BRANCH  25  27
ATOM     27  OG1 THR A   5      35.159 -17.157   9.657  0.00  0.00    -0.382 OA
ATOM     28  HG1 THR A   5      34.937 -16.406  10.263  0.00  0.00    +0.210 HD
ENDBRANCH  25  27
ENDBRANCH   5  25
ENDBRANCH   2   5
BRANCH   1  29
ATOM     29  CA  SER A   4      33.615 -21.216   7.478  0.00  0.00    +0.178 C 
BRANCH  29  32
ATOM     30  C   PRO A   3      34.564 -21.481   9.706  0.00  0.00    +0.241 C 
ATOM     31  O   PRO A   3      35.674 -21.732   9.253  0.00  0.00    -0.273 OA
ATOM     32  N   SER A   4      33.511 -21.200   8.945  0.00  0.00    -0.295 N 
ATOM     33  H   SER A   4      32.602 -20.966   9.393  0.00  0.00    +0.150 HD
BRANCH  30  39
ATOM     34  C   GLY A   2      33.749 -23.489  12.311  0.00  0.00    +0.246 C 
ATOM     35  N   PRO A   3      34.673 -22.546  12.074  0.00  0.00    -0.272 N 
ATOM     36  CD  PRO A   3      35.935 -22.366  12.813  0.00  0.00    +0.094 C 
ATOM     37  CG  PRO A   3      36.520 -21.069  12.181  0.00  0.00    +0.024 C 
ATOM     38  CB  PRO A   3      35.289 -20.276  11.777  0.00  0.00    +0.031 C 
ATOM     39  CA  PRO A   3      34.348 -21.371  11.222  0.00  0.00    +0.152 C 
ATOM     40  O   GLY A   2      32.744 -23.643  11.601  0.00  0.00    -0.273 OA
BRANCH  34  41
ATOM     41  CA  GLY A   2      33.962 -24.340  13.554  0.00  0.00    +0.176 C 
BRANCH  41  44
ATOM     42  C   VAL A   1      32.459 -25.525  15.045  0.00  0.00    +0.238 C 
ATOM     43  O   VAL A   1      33.159 -25.268  16.027  0.00  0.00    -0.274 OA
ATOM     44  N   GLY A   2      32.794 -25.168  13.794  0.00  0.00    -0.296 N 
ATOM     45  H   GLY A   2      32.213 -25.487  12.992  0.00  0.00    +0.150 HD
BRANCH  42  46
ATOM     46  CA  VAL A   1      31.161 -26.310  15.207  0.00  0.00    +0.145 C 
BRANCH  46  47
ATOM     47  CB  VAL A   1      30.130 -25.337  15.856  0.00  0.00    +0.025 C 
ATOM     48  CG2 VAL A   1      28.918 -26.101  16.390  0.00  0.00    +0.002 C 
ATOM     49  CG1 VAL A   1      29.693 -24.273  14.839  0.00  0.00    +0.002 C 
ENDBRANCH  46  47
BRANCH  46  50
ATOM     50  N   VAL A   1      31.442 -27.468  16.074  0.00  0.00    -0.238 NA
ATOM     51  H   VAL A   1      31.896 -27.307  16.996  0.00  0.00    +0.142 HD
ENDBRANCH  46  50
ENDBRANCH  42  46
ENDBRANCH  41  44
ENDBRANCH  34  41
ENDBRANCH  30  39
ENDBRANCH  29  32
BRANCH  29  52
ATOM     52  CB  SER A   4      32.239 -20.954   6.884  0.00  0.00    +0.166 C 
BRANCH  52  53
ATOM     53  OG  SER A   4      32.303 -20.774   5.474  0.00  0.00    -0.380 OA
ATOM     54  H   SER A   4      32.675 -21.590   5.055  0.00  0.00    +0.211 HD
ENDBRANCH  52  53
ENDBRANCH  29  52
ENDBRANCH   1  29
TORSDOF 20
REMARK  Name = ../refined-set-2016/2zz2/2zz2_pocket.pdb
REMARK  219 active torsions:
REMARK  status: ('A' for Active; 'I' for Inactive)
REMARK    1  A    between atoms: _1  and  _3
REMARK    2  A    between atoms: _3  and  _4
REMARK    3  A    between atoms: _3  and  _6
REMARK    4  A    between atoms: _6  and  _7
REMARK    5  A    between atoms: _10  and  _12
REMARK    6  A    between atoms: _12  and  _13
REMARK    7  A    between atoms: _12  and  _15
REMARK    8  A    between atoms: _15  and  _16
REMARK    9  A    between atoms: _19  and  _21
REMARK   10  A    between atoms: _21  and  _22
REMARK   11  A    between atoms: _25  and  _27
REMARK   12  A    between atoms: _27  and  _28
REMARK   13  A    between atoms: _27  and  _30
REMARK   14  A    between atoms: _30  and  _31
REMARK   15  A    between atoms: _31  and  _32
REMARK   16  A    between atoms: _34  and  _36
REMARK   17  A    between atoms: _36  and  _37
REMARK   18  A    between atoms: _36  and  _39
REMARK   19  A    between atoms: _39  and  _40
REMARK   20  A    between atoms: _43  and  _45
REMARK   21  A    between atoms: _45  and  _46
REMARK   22  A    between atoms: _45  and  _48
REMARK   23  A    between atoms: _48  and  _49
REMARK   24  A    between atoms: _49  and  _50
REMARK   25  A    between atoms: _50  and  _51
REMARK   26  A    between atoms: _51  and  _52
REMARK   27  A    between atoms: _56  and  _58
REMARK   28  A    between atoms: _58  and  _59
REMARK   29  A    between atoms: _58  and  _61
REMARK   30  A    between atoms: _61  and  _62
REMARK   31  A    between atoms: _65  and  _67
REMARK   32  A    between atoms: _67  and  _68
REMARK   33  A    between atoms: _70  and  _72
REMARK   34  A    between atoms: _72  and  _73
REMARK   35  A    between atoms: _72  and  _75
REMARK   36  A    between atoms: _75  and  _76
REMARK   37  A    between atoms: _81  and  _82
REMARK   38  A    between atoms: _85  and  _86
REMARK   39  A    between atoms: _91  and  _93
REMARK   40  A    between atoms: _93  and  _94
REMARK   41  A    between atoms: _93  and  _96
REMARK   42  A    between atoms: _96  and  _97
REMARK   43  A    between atoms: _100  and  _102
REMARK   44  A    between atoms: _102  and  _103
REMARK   45  A    between atoms: _102  and  _105
REMARK   46  A    between atoms: _105  and  _106
REMARK   47  A    between atoms: _109  and  _111
REMARK   48  A    between atoms: _111  and  _112
REMARK   49  A    between atoms: _115  and  _117
REMARK   50  A    between atoms: _117  and  _118
REMARK   51  A    between atoms: _117  and  _120
REMARK   52  A    between atoms: _120  and  _121
REMARK   53  A    between atoms: _124  and  _126
REMARK   54  A    between atoms: _126  and  _127
REMARK   55  A    between atoms: _126  and  _129
REMARK   56  A    between atoms: _129  and  _130
REMARK   57  A    between atoms: _136  and  _138
REMARK   58  A    between atoms: _138  and  _139
REMARK   59  A    between atoms: _142  and  _144
REMARK   60  A    between atoms: _144  and  _145
REMARK   61  A    between atoms: _144  and  _147
REMARK   62  A    between atoms: _147  and  _148
REMARK   63  A    between atoms: _151  and  _153
REMARK   64  A    between atoms: _153  and  _154
REMARK   65  A    between atoms: _153  and  _156
REMARK   66  A    between atoms: _159  and  _161
REMARK   67  A    between atoms: _161  and  _162
REMARK   68  A    between atoms: _161  and  _164
REMARK   69  A    between atoms: _164  and  _165
REMARK   70  A    between atoms: _170  and  _172
REMARK   71  A    between atoms: _172  and  _173
REMARK   72  A    between atoms: _172  and  _175
REMARK   73  A    between atoms: _175  and  _176
REMARK   74  A    between atoms: _182  and  _184
REMARK   75  A    between atoms: _184  and  _185
REMARK   76  A    between atoms: _184  and  _187
REMARK   77  A    between atoms: _187  and  _188
REMARK   78  A    between atoms: _191  and  _193
REMARK   79  A    between atoms: _193  and  _194
REMARK   80  A    between atoms: _193  and  _196
REMARK   81  A    between atoms: _196  and  _197
REMARK   82  A    between atoms: _200  and  _202
REMARK   83  A    between atoms: _202  and  _203
REMARK   84  A    between atoms: _202  and  _205
REMARK   85  A    between atoms: _205  and  _206
REMARK   86  A    between atoms: _206  and  _207
REMARK   87  A    between atoms: _210  and  _212
REMARK   88  A    between atoms: _212  and  _213
REMARK   89  A    between atoms: _212  and  _215
REMARK   90  A    between atoms: _215  and  _216
REMARK   91  A    between atoms: _216  and  _217
REMARK   92  A    between atoms: _219  and  _221
REMARK   93  A    between atoms: _221  and  _222
REMARK   94  A    between atoms: _221  and  _224
REMARK   95  A    between atoms: _224  and  _225
REMARK   96  A    between atoms: _227  and  _229
REMARK   97  A    between atoms: _229  and  _230
REMARK   98  A    between atoms: _229  and  _232
REMARK   99  A    between atoms: _232  and  _233
REMARK  100  A    between atoms: _238  and  _240
REMARK  101  A    between atoms: _240  and  _241
REMARK  102  A    between atoms: _244  and  _246
REMARK  103  A    between atoms: _246  and  _247
REMARK  104  A    between atoms: _246  and  _249
REMARK  105  A    between atoms: _249  and  _250
REMARK  106  A    between atoms: _253  and  _255
REMARK  107  A    between atoms: _255  and  _256
REMARK  108  A    between atoms: _255  and  _258
REMARK  109  A    between atoms: _261  and  _263
REMARK  110  A    between atoms: _263  and  _264
REMARK  111  A    between atoms: _267  and  _268
REMARK  112  A    between atoms: _273  and  _275
REMARK  113  A    between atoms: _275  and  _276
REMARK  114  A    between atoms: _275  and  _278
REMARK  115  A    between atoms: _278  and  _279
REMARK  116  A    between atoms: _281  and  _283
REMARK  117  A    between atoms: _283  and  _284
REMARK  118  A    between atoms: _283  and  _286
REMARK  119  A    between atoms: _286  and  _287
REMARK  120  A    between atoms: _290  and  _292
REMARK  121  A    between atoms: _292  and  _293
REMARK  122  A    between atoms: _292  and  _295
REMARK  123  A    between atoms: _295  and  _296
REMARK  124  A    between atoms: _296  and  _297
REMARK  125  A    between atoms: _297  and  _298
REMARK  126  A    between atoms: _307  and  _309
REMARK  127  A    between atoms: _309  and  _310
REMARK  128  A    between atoms: _309  and  _312
REMARK  129  A    between atoms: _312  and  _313
REMARK  130  A    between atoms: _316  and  _318
REMARK  131  A    between atoms: _318  and  _319
REMARK  132  A    between atoms: _318  and  _321
REMARK  133  A    between atoms: _321  and  _322
REMARK  134  A    between atoms: _325  and  _326
REMARK  135  A    between atoms: _331  and  _333
REMARK  136  A    between atoms: _333  and  _334
REMARK  137  A    between atoms: _336  and  _338
REMARK  138  A    between atoms: _338  and  _339
REMARK  139  A    between atoms: _338  and  _341
REMARK  140  A    between atoms: _344  and  _346
REMARK  141  A    between atoms: _346  and  _347
REMARK  142  A    between atoms: _349  and  _351
REMARK  143  A    between atoms: _351  and  _352
REMARK  144  A    between atoms: _355  and  _357
REMARK  145  A    between atoms: _357  and  _358
REMARK  146  A    between atoms: _357  and  _360
REMARK  147  A    between atoms: _360  and  _361
REMARK  148  A    between atoms: _361  and  _362
REMARK  149  A    between atoms: _367  and  _369
REMARK  150  A    between atoms: _369  and  _370
REMARK  151  A    between atoms: _372  and  _374
REMARK  152  A    between atoms: _374  and  _375
REMARK  153  A    between atoms: _377  and  _379
REMARK  154  A    between atoms: _379  and  _380
REMARK  155  A    between atoms: _379  and  _382
REMARK  156  A    between atoms: _382  and  _383
REMARK  157  A    between atoms: _386  and  _388
REMARK  158  A    between atoms: _388  and  _389
REMARK  159  A    between atoms: _388  and  _391
REMARK  160  A    between atoms: _394  and  _396
REMARK  161  A    between atoms: _396  and  _397
REMARK  162  A    between atoms: _399  and  _401
REMARK  163  A    between atoms: _401  and  _402
REMARK  164  A    between atoms: _401  and  _404
REMARK  165  A    between atoms: _404  and  _405
REMARK  166  A    between atoms: _405  and  _406
REMARK  167  A    between atoms: _406  and  _407
REMARK  168  A    between atoms: _416  and  _418
REMARK  169  A    between atoms: _418  and  _419
REMARK  170  A    between atoms: _418  and  _421
REMARK  171  A    between atoms: _421  and  _422
REMARK  172  A    between atoms: _424  and  _426
REMARK  173  A    between atoms: _426  and  _427
REMARK  174  A    between atoms: _426  and  _429
REMARK  175  A    between atoms: _429  and  _430
REMARK  176  A    between atoms: _433  and  _435
REMARK  177  A    between atoms: _435  and  _436
REMARK  178  A    between atoms: _435  and  _438
REMARK  179  A    between atoms: _438  and  _439
REMARK  180  A    between atoms: _444  and  _445
REMARK  181  A    between atoms: _447  and  _449
REMARK  182  A    between atoms: _449  and  _450
REMARK  183  A    between atoms: _449  and  _452
REMARK  184  A    between atoms: _452  and  _453
REMARK  185  A    between atoms: _456  and  _458
REMARK  186  A    between atoms: _458  and  _459
REMARK  187  A    between atoms: _462  and  _464
REMARK  188  A    between atoms: _464  and  _465
REMARK  189  A    between atoms: _464  and  _467
REMARK  190  A    between atoms: _467  and  _468
REMARK  191  A    between atoms: _471  and  _473
REMARK  192  A    between atoms: _473  and  _474
REMARK  193  A    between atoms: _473  and  _476
REMARK  194  A    between atoms: _476  and  _477
REMARK  195  A    between atoms: _481  and  _482
REMARK  196  A    between atoms: _487  and  _489
REMARK  197  A    between atoms: _489  and  _490
REMARK  198  A    between atoms: _489  and  _492
REMARK  199  A    between atoms: _492  and  _493
REMARK  200  A    between atoms: _493  and  _494
REMARK  201  A    between atoms: _497  and  _499
REMARK  202  A    between atoms: _499  and  _500
REMARK  203  A    between atoms: _499  and  _502
REMARK  204  A    between atoms: _502  and  _503
REMARK  205  A    between atoms: _506  and  _508
REMARK  206  A    between atoms: _508  and  _509
REMARK  207  A    between atoms: _508  and  _511
REMARK  208  A    between atoms: _511  and  _512
REMARK  209  A    between atoms: _517  and  _519
REMARK  210  A    between atoms: _519  and  _520
REMARK  211  A    between atoms: _519  and  _522
REMARK  212  A    between atoms: _522  and  _523
REMARK  213  A    between atoms: _523  and  _524
REMARK  214  A    between atoms: _524  and  _525
REMARK  215  A    between atoms: _525  and  _526
REMARK  216  A    between atoms: _530  and  _532
REMARK  217  A    between atoms: _532  and  _533
REMARK  218  A    between atoms: _532  and  _535
REMARK  219  A    between atoms: _535  and  _536
REMARK                            x       y       z     vdW  Elec       q    Type
REMARK                         _______ _______ _______ _____ _____    ______ ____
ROOT
ATOM      1  CA  VAL A   5      28.857 -19.151   4.724  0.00  0.00    +0.149 C 
ENDROOT
BRANCH   1   3
ATOM      2  C   GLY A   4      29.851 -18.173   6.769  0.00  0.00    +0.243 C 
ATOM      3  N   VAL A   5      28.947 -18.980   6.187  0.00  0.00    -0.297 N 
ATOM      4  H   VAL A   5      28.284 -19.505   6.792  0.00  0.00    +0.150 HD
ATOM      5  O   GLY A   4      30.666 -17.472   6.158  0.00  0.00    -0.273 OA
BRANCH   2   6
ATOM      6  CA  GLY A   4      29.820 -18.100   8.277  0.00  0.00    +0.176 C 
BRANCH   6   9
ATOM      7  C   PRO A   3      29.608 -20.226   9.472  0.00  0.00    +0.241 C 
ATOM      8  O   PRO A   3      30.842 -20.352   9.629  0.00  0.00    -0.273 OA
ATOM      9  N   GLY A   4      29.032 -19.163   8.908  0.00  0.00    -0.295 N 
ATOM     10  H   GLY A   4      27.995 -19.086   8.916  0.00  0.00    +0.150 HD
BRANCH   7  16
ATOM     11  C   SER A   2      29.376 -23.526   9.562  0.00  0.00    +0.246 C 
ATOM     12  N   PRO A   3      29.255 -22.503  10.417  0.00  0.00    -0.272 N 
ATOM     13  CD  PRO A   3      29.699 -22.457  11.834  0.00  0.00    +0.094 C 
ATOM     14  CG  PRO A   3      29.098 -21.159  12.358  0.00  0.00    +0.024 C 
ATOM     15  CB  PRO A   3      28.052 -20.734  11.337  0.00  0.00    +0.031 C 
ATOM     16  CA  PRO A   3      28.619 -21.252  10.016  0.00  0.00    +0.152 C 
ATOM     17  O   SER A   2      28.866 -23.525   8.468  0.00  0.00    -0.273 OA
BRANCH  11  18
ATOM     18  CA  SER A   2      30.216 -24.734  10.003  0.00  0.00    +0.178 C 
BRANCH  18  21
ATOM     19  C   ILE A   1      29.766 -26.781  11.127  0.00  0.00    +0.238 C 
ATOM     20  O   ILE A   1      30.551 -26.458  12.044  0.00  0.00    -0.274 OA
ATOM     21  N   SER A   2      29.450 -25.953  10.141  0.00  0.00    -0.295 N 
ATOM     22  H   SER A   2      28.673 -26.174   9.485  0.00  0.00    +0.150 HD
BRANCH  19  23
ATOM     23  CA  ILE A   1      29.143 -28.170  11.056  0.00  0.00    +0.145 C 
BRANCH  23  24
ATOM     24  N   ILE A   1      29.959 -29.120  11.813  0.00  0.00    -0.238 NA
ATOM     25  H   ILE A   1      30.049 -29.022  12.844  0.00  0.00    +0.142 HD
ENDBRANCH  23  24
BRANCH  23  26
ATOM     26  CB  ILE A   1      27.700 -28.192  11.516  0.00  0.00    +0.025 C 
ATOM     27  CG2 ILE A   1      27.126 -29.642  11.512  0.00  0.00    +0.002 C 
BRANCH  26  28
ATOM     28  CG1 ILE A   1      27.563 -27.614  12.921  0.00  0.00    +0.002 C 
ATOM     29  CD1 ILE A   1      26.121 -27.566  13.501  0.00  0.00    +0.000 C 
ENDBRANCH  26  28
ENDBRANCH  23  26
ENDBRANCH  19  23
ENDBRANCH  18  21
BRANCH  18  30
ATOM     30  CB  SER A   2      31.371 -24.975   9.019  0.00  0.00    +0.166 C 
BRANCH  30  31
ATOM     31  OG  SER A   2      32.147 -23.776   8.875  0.00  0.00    -0.380 OA
ATOM     32  H   SER A   2      32.516 -23.515   9.756  0.00  0.00    +0.211 HD
ENDBRANCH  30  31
ENDBRANCH  18  30
ENDBRANCH  11  18
ENDBRANCH   7  16
ENDBRANCH   6   9
ENDBRANCH   2   6
ENDBRANCH   1   3
BRANCH   1  33
ATOM     33  C   VAL A   5      27.931 -18.064   4.214  0.00  0.00    +0.241 C 
ATOM     34  O   VAL A   5      26.824 -17.864   4.742  0.00  0.00    -0.273 OA
ATOM     35  N   GLY A   6      28.362 -17.371   3.168  0.00  0.00    -0.295 N 
ATOM     36  H   GLY A   6      29.312 -17.563   2.792  0.00  0.00    +0.150 HD
BRANCH  35  37
ATOM     37  CA  GLY A   6      27.532 -16.337   2.524  0.00  0.00    +0.176 C 
BRANCH  37  38
ATOM     38  C   GLY A   6      27.788 -14.982   3.138  0.00  0.00    +0.243 C 
ATOM     39  N   ALA A   7      26.846 -14.552   3.978  0.00  0.00    -0.297 N 
ATOM     40  H   ALA A   7      26.063 -15.176   4.260  0.00  0.00    +0.150 HD
ATOM     41  O   GLY A   6      28.812 -14.333   2.853  0.00  0.00    -0.273 OA
BRANCH  39  42
ATOM     42  CA  ALA A   7      26.934 -13.179   4.498  0.00  0.00    +0.149 C 
ATOM     43  CB  ALA A   7      25.845 -12.916   5.496  0.00  0.00    +0.031 C 
BRANCH  42  44
ATOM     44  C   ALA A   7      28.292 -12.866   5.124  0.00  0.00    +0.241 C 
ATOM     45  N   GLN A   8      28.841 -13.776   5.921  0.00  0.00    -0.297 N 
ATOM     46  H   GLN A   8      28.375 -14.696   6.051  0.00  0.00    +0.150 HD
ATOM     47  O   ALA A   7      28.778 -11.761   4.940  0.00  0.00    -0.273 OA
BRANCH  45  48
ATOM     48  CA  GLN A   8      30.091 -13.495   6.614  0.00  0.00    +0.149 C 
BRANCH  48  49
ATOM     49  C   GLN A   8      31.318 -13.682   5.729  0.00  0.00    +0.241 C 
ATOM     50  O   GLN A   8      32.427 -13.397   6.156  0.00  0.00    -0.273 OA
ATOM     51  N   GLY A   9      31.120 -14.188   4.516  0.00  0.00    -0.295 N 
ATOM     52  H   GLY A   9      30.164 -14.478   4.228  0.00  0.00    +0.150 HD
BRANCH  51  53
ATOM     53  CA  GLY A   9      32.238 -14.340   3.581  0.00  0.00    +0.176 C 
BRANCH  53  54
ATOM     54  C   GLY A   9      32.661 -15.750   3.205  0.00  0.00    +0.243 C 
ATOM     55  N   GLY A  10      32.216 -16.755   3.963  0.00  0.00    -0.296 N 
ATOM     56  H   GLY A  10      31.581 -16.555   4.762  0.00  0.00    +0.150 HD
ATOM     57  O   GLY A   9      33.462 -15.938   2.268  0.00  0.00    -0.273 OA
BRANCH  55  58
ATOM     58  CA  GLY A  10      32.610 -18.124   3.683  0.00  0.00    +0.163 C 
BRANCH  58  59
ATOM     59  C   GLY A  10      32.010 -18.683   2.423  0.00  0.00    +0.229 C 
ATOM     60  O   GLY A  10      30.932 -18.239   1.990  0.00  0.00    -0.286 OA
ENDBRANCH  58  59
ENDBRANCH  55  58
ENDBRANCH  53  54
ENDBRANCH  51  53
ENDBRANCH  48  49
BRANCH  48  61
ATOM     61  CB  GLN A   8      30.203 -14.402   7.847  0.00  0.00    +0.039 C 
BRANCH  61  62
ATOM     62  CG  GLN A   8      29.181 -14.079   8.880  0.00  0.00    +0.087 C 
BRANCH  62  63
ATOM     63  CD  GLN A   8      29.342 -15.028  10.094  0.00  0.00    +0.219 C 
ATOM     64  OE1 GLN A   8      30.413 -15.080  10.714  0.00  0.00    -0.275 OA
ATOM     65  NE2 GLN A   8      28.272 -15.761  10.454  0.00  0.00    -0.329 N 
ATOM     66 HE21 GLN A   8      28.329 -16.396  11.276  0.00  0.00    +0.145 HD
ATOM     67 HE22 GLN A   8      27.388 -15.693   9.910  0.00  0.00    +0.145 HD
ENDBRANCH  62  63
ENDBRANCH  61  62
ENDBRANCH  48  61
ENDBRANCH  45  48
ENDBRANCH  42  44
ENDBRANCH  39  42
ENDBRANCH  37  38
ENDBRANCH  35  37
ENDBRANCH   1  33
BRANCH   1  68
ATOM     68  CB  VAL A   5      28.278 -20.542   4.366  0.00  0.00    +0.027 C 
ATOM     69  CG2 VAL A   5      29.240 -21.637   4.846  0.00  0.00    +0.002 C 
ATOM     70  CG1 VAL A   5      28.019 -20.633   2.839  0.00  0.00    +0.002 C 
ENDBRANCH   1  68
TORSDOF 27
REMARK  Name = ../refined-set-2016/2zz2/2zz2_pocket.pdb
REMARK  219 active torsions:
REMARK  status: ('A' for Active; 'I' for Inactive)
REMARK    1  A    between atoms: _1  and  _3
REMARK    2  A    between atoms: _3  and  _4
REMARK    3  A    between atoms: _3  and  _6
REMARK    4  A    between atoms: _6  and  _7
REMARK    5  A    between atoms: _10  and  _12
REMARK    6  A    between atoms: _12  and  _13
REMARK    7  A    between atoms: _12  and  _15
REMARK    8  A    between atoms: _15  and  _16
REMARK    9  A    between atoms: _19  and  _21
REMARK   10  A    between atoms: _21  and  _22
REMARK   11  A    between atoms: _25  and  _27
REMARK   12  A    between atoms: _27  and  _28
REMARK   13  A    between atoms: _27  and  _30
REMARK   14  A    between atoms: _30  and  _31
REMARK   15  A    between atoms: _31  and  _32
REMARK   16  A    between atoms: _34  and  _36
REMARK   17  A    between atoms: _36  and  _37
REMARK   18  A    between atoms: _36  and  _39
REMARK   19  A    between atoms: _39  and  _40
REMARK   20  A    between atoms: _43  and  _45
REMARK   21  A    between atoms: _45  and  _46
REMARK   22  A    between atoms: _45  and  _48
REMARK   23  A    between atoms: _48  and  _49
REMARK   24  A    between atoms: _49  and  _50
REMARK   25  A    between atoms: _50  and  _51
REMARK   26  A    between atoms: _51  and  _52
REMARK   27  A    between atoms: _56  and  _58
REMARK   28  A    between atoms: _58  and  _59
REMARK   29  A    between atoms: _58  and  _61
REMARK   30  A    between atoms: _61  and  _62
REMARK   31  A    between atoms: _65  and  _67
REMARK   32  A    between atoms: _67  and  _68
REMARK   33  A    between atoms: _70  and  _72
REMARK   34  A    between atoms: _72  and  _73
REMARK   35  A    between atoms: _72  and  _75
REMARK   36  A    between atoms: _75  and  _76
REMARK   37  A    between atoms: _81  and  _82
REMARK   38  A    between atoms: _85  and  _86
REMARK   39  A    between atoms: _91  and  _93
REMARK   40  A    between atoms: _93  and  _94
REMARK   41  A    between atoms: _93  and  _96
REMARK   42  A    between atoms: _96  and  _97
REMARK   43  A    between atoms: _100  and  _102
REMARK   44  A    between atoms: _102  and  _103
REMARK   45  A    between atoms: _102  and  _105
REMARK   46  A    between atoms: _105  and  _106
REMARK   47  A    between atoms: _109  and  _111
REMARK   48  A    between atoms: _111  and  _112
REMARK   49  A    between atoms: _115  and  _117
REMARK   50  A    between atoms: _117  and  _118
REMARK   51  A    between atoms: _117  and  _120
REMARK   52  A    between atoms: _120  and  _121
REMARK   53  A    between atoms: _124  and  _126
REMARK   54  A    between atoms: _126  and  _127
REMARK   55  A    between atoms: _126  and  _129
REMARK   56  A    between atoms: _129  and  _130
REMARK   57  A    between atoms: _136  and  _138
REMARK   58  A    between atoms: _138  and  _139
REMARK   59  A    between atoms: _142  and  _144
REMARK   60  A    between atoms: _144  and  _145
REMARK   61  A    between atoms: _144  and  _147
REMARK   62  A    between atoms: _147  and  _148
REMARK   63  A    between atoms: _151  and  _153
REMARK   64  A    between atoms: _153  and  _154
REMARK   65  A    between atoms: _153  and  _156
REMARK   66  A    between atoms: _159  and  _161
REMARK   67  A    between atoms: _161  and  _162
REMARK   68  A    between atoms: _161  and  _164
REMARK   69  A    between atoms: _164  and  _165
REMARK   70  A    between atoms: _170  and  _172
REMARK   71  A    between atoms: _172  and  _173
REMARK   72  A    between atoms: _172  and  _175
REMARK   73  A    between atoms: _175  and  _176
REMARK   74  A    between atoms: _182  and  _184
REMARK   75  A    between atoms: _184  and  _185
REMARK   76  A    between atoms: _184  and  _187
REMARK   77  A    between atoms: _187  and  _188
REMARK   78  A    between atoms: _191  and  _193
REMARK   79  A    between atoms: _193  and  _194
REMARK   80  A    between atoms: _193  and  _196
REMARK   81  A    between atoms: _196  and  _197
REMARK   82  A    between atoms: _200  and  _202
REMARK   83  A    between atoms: _202  and  _203
REMARK   84  A    between atoms: _202  and  _205
REMARK   85  A    between atoms: _205  and  _206
REMARK   86  A    between atoms: _206  and  _207
REMARK   87  A    between atoms: _210  and  _212
REMARK   88  A    between atoms: _212  and  _213
REMARK   89  A    between atoms: _212  and  _215
REMARK   90  A    between atoms: _215  and  _216
REMARK   91  A    between atoms: _216  and  _217
REMARK   92  A    between atoms: _219  and  _221
REMARK   93  A    between atoms: _221  and  _222
REMARK   94  A    between atoms: _221  and  _224
REMARK   95  A    between atoms: _224  and  _225
REMARK   96  A    between atoms: _227  and  _229
REMARK   97  A    between atoms: _229  and  _230
REMARK   98  A    between atoms: _229  and  _232
REMARK   99  A    between atoms: _232  and  _233
REMARK  100  A    between atoms: _238  and  _240
REMARK  101  A    between atoms: _240  and  _241
REMARK  102  A    between atoms: _244  and  _246
REMARK  103  A    between atoms: _246  and  _247
REMARK  104  A    between atoms: _246  and  _249
REMARK  105  A    between atoms: _249  and  _250
REMARK  106  A    between atoms: _253  and  _255
REMARK  107  A    between atoms: _255  and  _256
REMARK  108  A    between atoms: _255  and  _258
REMARK  109  A    between atoms: _261  and  _263
REMARK  110  A    between atoms: _263  and  _264
REMARK  111  A    between atoms: _267  and  _268
REMARK  112  A    between atoms: _273  and  _275
REMARK  113  A    between atoms: _275  and  _276
REMARK  114  A    between atoms: _275  and  _278
REMARK  115  A    between atoms: _278  and  _279
REMARK  116  A    between atoms: _281  and  _283
REMARK  117  A    between atoms: _283  and  _284
REMARK  118  A    between atoms: _283  and  _286
REMARK  119  A    between atoms: _286  and  _287
REMARK  120  A    between atoms: _290  and  _292
REMARK  121  A    between atoms: _292  and  _293
REMARK  122  A    between atoms: _292  and  _295
REMARK  123  A    between atoms: _295  and  _296
REMARK  124  A    between atoms: _296  and  _297
REMARK  125  A    between atoms: _297  and  _298
REMARK  126  A    between atoms: _307  and  _309
REMARK  127  A    between atoms: _309  and  _310
REMARK  128  A    between atoms: _309  and  _312
REMARK  129  A    between atoms: _312  and  _313
REMARK  130  A    between atoms: _316  and  _318
REMARK  131  A    between atoms: _318  and  _319
REMARK  132  A    between atoms: _318  and  _321
REMARK  133  A    between atoms: _321  and  _322
REMARK  134  A    between atoms: _325  and  _326
REMARK  135  A    between atoms: _331  and  _333
REMARK  136  A    between atoms: _333  and  _334
REMARK  137  A    between atoms: _336  and  _338
REMARK  138  A    between atoms: _338  and  _339
REMARK  139  A    between atoms: _338  and  _341
REMARK  140  A    between atoms: _344  and  _346
REMARK  141  A    between atoms: _346  and  _347
REMARK  142  A    between atoms: _349  and  _351
REMARK  143  A    between atoms: _351  and  _352
REMARK  144  A    between atoms: _355  and  _357
REMARK  145  A    between atoms: _357  and  _358
REMARK  146  A    between atoms: _357  and  _360
REMARK  147  A    between atoms: _360  and  _361
REMARK  148  A    between atoms: _361  and  _362
REMARK  149  A    between atoms: _367  and  _369
REMARK  150  A    between atoms: _369  and  _370
REMARK  151  A    between atoms: _372  and  _374
REMARK  152  A    between atoms: _374  and  _375
REMARK  153  A    between atoms: _377  and  _379
REMARK  154  A    between atoms: _379  and  _380
REMARK  155  A    between atoms: _379  and  _382
REMARK  156  A    between atoms: _382  and  _383
REMARK  157  A    between atoms: _386  and  _388
REMARK  158  A    between atoms: _388  and  _389
REMARK  159  A    between atoms: _388  and  _391
REMARK  160  A    between atoms: _394  and  _396
REMARK  161  A    between atoms: _396  and  _397
REMARK  162  A    between atoms: _399  and  _401
REMARK  163  A    between atoms: _401  and  _402
REMARK  164  A    between atoms: _401  and  _404
REMARK  165  A    between atoms: _404  and  _405
REMARK  166  A    between atoms: _405  and  _406
REMARK  167  A    between atoms: _406  and  _407
REMARK  168  A    between atoms: _416  and  _418
REMARK  169  A    between atoms: _418  and  _419
REMARK  170  A    between atoms: _418  and  _421
REMARK  171  A    between atoms: _421  and  _422
REMARK  172  A    between atoms: _424  and  _426
REMARK  173  A    between atoms: _426  and  _427
REMARK  174  A    between atoms: _426  and  _429
REMARK  175  A    between atoms: _429  and  _430
REMARK  176  A    between atoms: _433  and  _435
REMARK  177  A    between atoms: _435  and  _436
REMARK  178  A    between atoms: _435  and  _438
REMARK  179  A    between atoms: _438  and  _439
REMARK  180  A    between atoms: _444  and  _445
REMARK  181  A    between atoms: _447  and  _449
REMARK  182  A    between atoms: _449  and  _450
REMARK  183  A    between atoms: _449  and  _452
REMARK  184  A    between atoms: _452  and  _453
REMARK  185  A    between atoms: _456  and  _458
REMARK  186  A    between atoms: _458  and  _459
REMARK  187  A    between atoms: _462  and  _464
REMARK  188  A    between atoms: _464  and  _465
REMARK  189  A    between atoms: _464  and  _467
REMARK  190  A    between atoms: _467  and  _468
REMARK  191  A    between atoms: _471  and  _473
REMARK  192  A    between atoms: _473  and  _474
REMARK  193  A    between atoms: _473  and  _476
REMARK  194  A    between atoms: _476  and  _477
REMARK  195  A    between atoms: _481  and  _482
REMARK  196  A    between atoms: _487  and  _489
REMARK  197  A    between atoms: _489  and  _490
REMARK  198  A    between atoms: _489  and  _492
REMARK  199  A    between atoms: _492  and  _493
REMARK  200  A    between atoms: _493  and  _494
REMARK  201  A    between atoms: _497  and  _499
REMARK  202  A    between atoms: _499  and  _500
REMARK  203  A    between atoms: _499  and  _502
REMARK  204  A    between atoms: _502  and  _503
REMARK  205  A    between atoms: _506  and  _508
REMARK  206  A    between atoms: _508  and  _509
REMARK  207  A    between atoms: _508  and  _511
REMARK  208  A    between atoms: _511  and  _512
REMARK  209  A    between atoms: _517  and  _519
REMARK  210  A    between atoms: _519  and  _520
REMARK  211  A    between atoms: _519  and  _522
REMARK  212  A    between atoms: _522  and  _523
REMARK  213  A    between atoms: _523  and  _524
REMARK  214  A    between atoms: _524  and  _525
REMARK  215  A    between atoms: _525  and  _526
REMARK  216  A    between atoms: _530  and  _532
REMARK  217  A    between atoms: _532  and  _533
REMARK  218  A    between atoms: _532  and  _535
REMARK  219  A    between atoms: _535  and  _536
REMARK                            x       y       z     vdW  Elec       q    Type
REMARK                         _______ _______ _______ _____ _____    ______ ____
ROOT
ATOM      1  C   ARG A   4      20.974 -14.696   4.403  0.00  0.00    +0.241 C 
ATOM      2  N   SER A   5      21.970 -15.384   3.856  0.00  0.00    -0.295 N 
ATOM      3  H   SER A   5      22.722 -15.763   4.466  0.00  0.00    +0.150 HD
ATOM      4  O   ARG A   4      20.079 -14.193   3.732  0.00  0.00    -0.273 OA
ENDROOT
BRANCH   2   5
ATOM      5  CA  SER A   5      22.031 -15.624   2.384  0.00  0.00    +0.178 C 
BRANCH   5   6
ATOM      6  C   SER A   5      20.782 -16.305   1.885  0.00  0.00    +0.243 C 
ATOM      7  N   ILE A   6      20.113 -17.056   2.773  0.00  0.00    -0.297 N 
ATOM      8  H   ILE A   6      20.516 -17.232   3.715  0.00  0.00    +0.150 HD
ATOM      9  O   SER A   5      20.425 -16.129   0.681  0.00  0.00    -0.273 OA
BRANCH   7  10
ATOM     10  CA  ILE A   6      18.804 -17.631   2.410  0.00  0.00    +0.149 C 
BRANCH  10  11
ATOM     11  C   ILE A   6      17.647 -16.743   2.936  0.00  0.00    +0.241 C 
ATOM     12  N   TYR A   7      17.638 -16.438   4.239  0.00  0.00    -0.297 N 
ATOM     13  H   TYR A   7      18.478 -16.576   4.836  0.00  0.00    +0.150 HD
ATOM     14  O   ILE A   6      16.720 -16.371   2.162  0.00  0.00    -0.273 OA
BRANCH  12  15
ATOM     15  CA  TYR A   7      16.380 -15.896   4.789  0.00  0.00    +0.153 C 
BRANCH  15  16
ATOM     16  C   TYR A   7      16.152 -14.414   4.482  0.00  0.00    +0.241 C 
ATOM     17  O   TYR A   7      15.027 -13.935   4.652  0.00  0.00    -0.273 OA
ATOM     18  N   LEU A   8      17.196 -13.711   4.026  0.00  0.00    -0.298 N 
ATOM     19  H   LEU A   8      18.130 -14.166   3.972  0.00  0.00    +0.150 HD
BRANCH  18  20
ATOM     20  CA  LEU A   8      17.052 -12.291   3.594  0.00  0.00    +0.137 C 
BRANCH  20  21
ATOM     21  C   LEU A   8      16.911 -12.177   2.064  0.00  0.00    +0.227 C 
ATOM     22  O   LEU A   8      16.731 -11.057   1.522  0.00  0.00    -0.286 OA
ENDBRANCH  20  21
BRANCH  20  23
ATOM     23  CB  LEU A   8      18.213 -11.405   4.088  0.00  0.00    +0.028 C 
BRANCH  23  24
ATOM     24  CG  LEU A   8      18.171 -11.177   5.607  0.00  0.00    +0.002 C 
ATOM     25  CD2 LEU A   8      16.779 -10.708   6.122  0.00  0.00    +0.000 C 
ATOM     26  CD1 LEU A   8      19.299 -10.236   5.992  0.00  0.00    +0.000 C 
ENDBRANCH  23  24
ENDBRANCH  20  23
ENDBRANCH  18  20
ENDBRANCH  15  16
BRANCH  15  27
ATOM     27  CB  TYR A   7      16.171 -16.247   6.282  0.00  0.00    +0.055 C 
BRANCH  27  28
ATOM     28  CG  TYR A   7      17.091 -15.528   7.299  0.00  0.00    -0.020 A 
ATOM     29  CD2 TYR A   7      18.014 -16.253   8.087  0.00  0.00    -0.001 A 
ATOM     30  CE2 TYR A   7      18.798 -15.597   9.023  0.00  0.00    +0.036 A 
ATOM     31  CZ  TYR A   7      18.715 -14.212   9.196  0.00  0.00    +0.134 A 
ATOM     32  CE1 TYR A   7      17.816 -13.464   8.453  0.00  0.00    +0.036 A 
ATOM     33  CD1 TYR A   7      16.998 -14.148   7.513  0.00  0.00    -0.001 A 
BRANCH  31  34
ATOM     34  OH  TYR A   7      19.529 -13.595  10.130  0.00  0.00    -0.506 OA
ATOM     35  HH  TYR A   7      20.478 -13.757   9.898  0.00  0.00    +0.292 HD
ENDBRANCH  31  34
ENDBRANCH  27  28
ENDBRANCH  15  27
ENDBRANCH  12  15
ENDBRANCH  10  11
BRANCH  10  36
ATOM     36  CB  ILE A   6      18.696 -19.077   2.946  0.00  0.00    +0.027 C 
ATOM     37  CG2 ILE A   6      17.255 -19.615   2.892  0.00  0.00    +0.002 C 
BRANCH  36  38
ATOM     38  CG1 ILE A   6      19.658 -19.991   2.163  0.00  0.00    +0.002 C 
ATOM     39  CD1 ILE A   6      19.869 -21.384   2.802  0.00  0.00    +0.000 C 
ENDBRANCH  36  38
ENDBRANCH  10  36
ENDBRANCH   7  10
ENDBRANCH   5   6
BRANCH   5  40
ATOM     40  CB  SER A   5      23.246 -16.485   2.019  0.00  0.00    +0.166 C 
BRANCH  40  41
ATOM     41  OG  SER A   5      24.383 -15.710   2.169  0.00  0.00    -0.380 OA
ATOM     42  H   SER A   5      24.328 -14.925   1.568  0.00  0.00    +0.211 HD
ENDBRANCH  40  41
ENDBRANCH   5  40
ENDBRANCH   2   5
BRANCH   1  43
ATOM     43  CA  ARG A   4      20.988 -14.479   5.922  0.00  0.00    +0.149 C 
BRANCH  43  45
ATOM     44  C   GLY A   3      20.834 -16.835   6.591  0.00  0.00    +0.243 C 
ATOM     45  N   ARG A   4      21.436 -15.653   6.685  0.00  0.00    -0.297 N 
ATOM     46  H   ARG A   4      22.253 -15.556   7.321  0.00  0.00    +0.150 HD
ATOM     47  O   GLY A   3      20.068 -17.112   5.664  0.00  0.00    -0.273 OA
BRANCH  44  48
ATOM     48  CA  GLY A   3      21.242 -17.900   7.590  0.00  0.00    +0.176 C 
BRANCH  48  50
ATOM     49  C   VAL A   2      22.193 -20.001   6.733  0.00  0.00    +0.241 C 
ATOM     50  N   GLY A   3      22.331 -18.713   7.071  0.00  0.00    -0.295 N 
ATOM     51  H   GLY A   3      23.265 -18.271   6.957  0.00  0.00    +0.150 HD
ATOM     52  O   VAL A   2      21.133 -20.624   6.779  0.00  0.00    -0.273 OA
BRANCH  49  53
ATOM     53  CA  VAL A   2      23.439 -20.674   6.216  0.00  0.00    +0.148 C 
BRANCH  53  56
ATOM     54  C   ILE A   1      24.892 -22.214   7.437  0.00  0.00    +0.238 C 
ATOM     55  O   ILE A   1      25.902 -21.529   7.221  0.00  0.00    -0.274 OA
ATOM     56  N   VAL A   2      23.663 -21.908   6.979  0.00  0.00    -0.297 N 
ATOM     57  H   VAL A   2      22.867 -22.550   7.167  0.00  0.00    +0.150 HD
BRANCH  54  58
ATOM     58  CA  ILE A   1      25.013 -23.482   8.262  0.00  0.00    +0.145 C 
BRANCH  58  59
ATOM     59  N   ILE A   1      26.136 -24.262   7.755  0.00  0.00    -0.238 NA
ATOM     60  H   ILE A   1      27.097 -24.010   8.063  0.00  0.00    +0.142 HD
ENDBRANCH  58  59
BRANCH  58  61
ATOM     61  CB  ILE A   1      25.305 -23.084   9.715  0.00  0.00    +0.025 C 
ATOM     62  CG2 ILE A   1      24.204 -22.063  10.228  0.00  0.00    +0.002 C 
BRANCH  61  63
ATOM     63  CG1 ILE A   1      25.293 -24.360  10.581  0.00  0.00    +0.002 C 
ATOM     64  CD1 ILE A   1      26.010 -24.109  11.888  0.00  0.00    +0.000 C 
ENDBRANCH  61  63
ENDBRANCH  58  61
ENDBRANCH  54  58
ENDBRANCH  53  56
BRANCH  53  65
ATOM     65  CB  VAL A   2      23.282 -20.947   4.693  0.00  0.00    +0.027 C 
ATOM     66  CG2 VAL A   2      24.505 -21.691   4.125  0.00  0.00    +0.002 C 
ATOM     67  CG1 VAL A   2      23.053 -19.629   3.936  0.00  0.00    +0.002 C 
ENDBRANCH  53  65
ENDBRANCH  49  53
ENDBRANCH  48  50
ENDBRANCH  44  48
ENDBRANCH  43  45
BRANCH  43  68
ATOM     68  CB  ARG A   4      21.855 -13.272   6.298  0.00  0.00    +0.033 C 
BRANCH  68  69
ATOM     69  CG  ARG A   4      21.483 -12.692   7.668  0.00  0.00    +0.045 C 
BRANCH  69  70
ATOM     70  CD  ARG A   4      22.558 -11.704   8.139  0.00  0.00    +0.174 C 
BRANCH  70  71
ATOM     71  NE  ARG A   4      23.764 -12.447   8.547  0.00  0.00    -0.265 N 
ATOM     72  CZ  ARG A   4      24.952 -11.900   8.806  0.00  0.00    +0.342 C 
ATOM     73  NH2 ARG A   4      25.979 -12.647   9.202  0.00  0.00    -0.292 N 
ATOM     74 HH21 ARG A   4      26.899 -12.204   9.400  0.00  0.00    +0.255 HD
ATOM     75 HH22 ARG A   4      25.862 -13.674   9.314  0.00  0.00    +0.255 HD
ATOM     76  NH1 ARG A   4      25.127 -10.585   8.660  0.00  0.00    -0.292 N 
ATOM     77 HH11 ARG A   4      26.054 -10.158   8.862  0.00  0.00    +0.255 HD
ATOM     78 HH12 ARG A   4      24.337  -9.987   8.344  0.00  0.00    +0.255 HD
ATOM     79  HE  ARG A   4      23.682 -13.480   8.640  0.00  0.00    +0.259 HD
ENDBRANCH  70  71
ENDBRANCH  69  70
ENDBRANCH  68  69
ENDBRANCH  43  68
ENDBRANCH   1  43
TORSDOF 32
REMARK  Name = ../refined-set-2016/2zz2/2zz2_pocket.pdb
REMARK  219 active torsions:
REMARK  status: ('A' for Active; 'I' for Inactive)
REMARK    1  A    between atoms: _1  and  _3
REMARK    2  A    between atoms: _3  and  _4
REMARK    3  A    between atoms: _3  and  _6
REMARK    4  A    between atoms: _6  and  _7
REMARK    5  A    between atoms: _10  and  _12
REMARK    6  A    between atoms: _12  and  _13
REMARK    7  A    between atoms: _12  and  _15
REMARK    8  A    between atoms: _15  and  _16
REMARK    9  A    between atoms: _19  and  _21
REMARK   10  A    between atoms: _21  and  _22
REMARK   11  A    between atoms: _25  and  _27
REMARK   12  A    between atoms: _27  and  _28
REMARK   13  A    between atoms: _27  and  _30
REMARK   14  A    between atoms: _30  and  _31
REMARK   15  A    between atoms: _31  and  _32
REMARK   16  A    between atoms: _34  and  _36
REMARK   17  A    between atoms: _36  and  _37
REMARK   18  A    between atoms: _36  and  _39
REMARK   19  A    between atoms: _39  and  _40
REMARK   20  A    between atoms: _43  and  _45
REMARK   21  A    between atoms: _45  and  _46
REMARK   22  A    between atoms: _45  and  _48
REMARK   23  A    between atoms: _48  and  _49
REMARK   24  A    between atoms: _49  and  _50
REMARK   25  A    between atoms: _50  and  _51
REMARK   26  A    between atoms: _51  and  _52
REMARK   27  A    between atoms: _56  and  _58
REMARK   28  A    between atoms: _58  and  _59
REMARK   29  A    between atoms: _58  and  _61
REMARK   30  A    between atoms: _61  and  _62
REMARK   31  A    between atoms: _65  and  _67
REMARK   32  A    between atoms: _67  and  _68
REMARK   33  A    between atoms: _70  and  _72
REMARK   34  A    between atoms: _72  and  _73
REMARK   35  A    between atoms: _72  and  _75
REMARK   36  A    between atoms: _75  and  _76
REMARK   37  A    between atoms: _81  and  _82
REMARK   38  A    between atoms: _85  and  _86
REMARK   39  A    between atoms: _91  and  _93
REMARK   40  A    between atoms: _93  and  _94
REMARK   41  A    between atoms: _93  and  _96
REMARK   42  A    between atoms: _96  and  _97
REMARK   43  A    between atoms: _100  and  _102
REMARK   44  A    between atoms: _102  and  _103
REMARK   45  A    between atoms: _102  and  _105
REMARK   46  A    between atoms: _105  and  _106
REMARK   47  A    between atoms: _109  and  _111
REMARK   48  A    between atoms: _111  and  _112
REMARK   49  A    between atoms: _115  and  _117
REMARK   50  A    between atoms: _117  and  _118
REMARK   51  A    between atoms: _117  and  _120
REMARK   52  A    between atoms: _120  and  _121
REMARK   53  A    between atoms: _124  and  _126
REMARK   54  A    between atoms: _126  and  _127
REMARK   55  A    between atoms: _126  and  _129
REMARK   56  A    between atoms: _129  and  _130
REMARK   57  A    between atoms: _136  and  _138
REMARK   58  A    between atoms: _138  and  _139
REMARK   59  A    between atoms: _142  and  _144
REMARK   60  A    between atoms: _144  and  _145
REMARK   61  A    between atoms: _144  and  _147
REMARK   62  A    between atoms: _147  and  _148
REMARK   63  A    between atoms: _151  and  _153
REMARK   64  A    between atoms: _153  and  _154
REMARK   65  A    between atoms: _153  and  _156
REMARK   66  A    between atoms: _159  and  _161
REMARK   67  A    between atoms: _161  and  _162
REMARK   68  A    between atoms: _161  and  _164
REMARK   69  A    between atoms: _164  and  _165
REMARK   70  A    between atoms: _170  and  _172
REMARK   71  A    between atoms: _172  and  _173
REMARK   72  A    between atoms: _172  and  _175
REMARK   73  A    between atoms: _175  and  _176
REMARK   74  A    between atoms: _182  and  _184
REMARK   75  A    between atoms: _184  and  _185
REMARK   76  A    between atoms: _184  and  _187
REMARK   77  A    between atoms: _187  and  _188
REMARK   78  A    between atoms: _191  and  _193
REMARK   79  A    between atoms: _193  and  _194
REMARK   80  A    between atoms: _193  and  _196
REMARK   81  A    between atoms: _196  and  _197
REMARK   82  A    between atoms: _200  and  _202
REMARK   83  A    between atoms: _202  and  _203
REMARK   84  A    between atoms: _202  and  _205
REMARK   85  A    between atoms: _205  and  _206
REMARK   86  A    between atoms: _206  and  _207
REMARK   87  A    between atoms: _210  and  _212
REMARK   88  A    between atoms: _212  and  _213
REMARK   89  A    between atoms: _212  and  _215
REMARK   90  A    between atoms: _215  and  _216
REMARK   91  A    between atoms: _216  and  _217
REMARK   92  A    between atoms: _219  and  _221
REMARK   93  A    between atoms: _221  and  _222
REMARK   94  A    between atoms: _221  and  _224
REMARK   95  A    between atoms: _224  and  _225
REMARK   96  A    between atoms: _227  and  _229
REMARK   97  A    between atoms: _229  and  _230
REMARK   98  A    between atoms: _229  and  _232
REMARK   99  A    between atoms: _232  and  _233
REMARK  100  A    between atoms: _238  and  _240
REMARK  101  A    between atoms: _240  and  _241
REMARK  102  A    between atoms: _244  and  _246
REMARK  103  A    between atoms: _246  and  _247
REMARK  104  A    between atoms: _246  and  _249
REMARK  105  A    between atoms: _249  and  _250
REMARK  106  A    between atoms: _253  and  _255
REMARK  107  A    between atoms: _255  and  _256
REMARK  108  A    between atoms: _255  and  _258
REMARK  109  A    between atoms: _261  and  _263
REMARK  110  A    between atoms: _263  and  _264
REMARK  111  A    between atoms: _267  and  _268
REMARK  112  A    between atoms: _273  and  _275
REMARK  113  A    between atoms: _275  and  _276
REMARK  114  A    between atoms: _275  and  _278
REMARK  115  A    between atoms: _278  and  _279
REMARK  116  A    between atoms: _281  and  _283
REMARK  117  A    between atoms: _283  and  _284
REMARK  118  A    between atoms: _283  and  _286
REMARK  119  A    between atoms: _286  and  _287
REMARK  120  A    between atoms: _290  and  _292
REMARK  121  A    between atoms: _292  and  _293
REMARK  122  A    between atoms: _292  and  _295
REMARK  123  A    between atoms: _295  and  _296
REMARK  124  A    between atoms: _296  and  _297
REMARK  125  A    between atoms: _297  and  _298
REMARK  126  A    between atoms: _307  and  _309
REMARK  127  A    between atoms: _309  and  _310
REMARK  128  A    between atoms: _309  and  _312
REMARK  129  A    between atoms: _312  and  _313
REMARK  130  A    between atoms: _316  and  _318
REMARK  131  A    between atoms: _318  and  _319
REMARK  132  A    between atoms: _318  and  _321
REMARK  133  A    between atoms: _321  and  _322
REMARK  134  A    between atoms: _325  and  _326
REMARK  135  A    between atoms: _331  and  _333
REMARK  136  A    between atoms: _333  and  _334
REMARK  137  A    between atoms: _336  and  _338
REMARK  138  A    between atoms: _338  and  _339
REMARK  139  A    between atoms: _338  and  _341
REMARK  140  A    between atoms: _344  and  _346
REMARK  141  A    between atoms: _346  and  _347
REMARK  142  A    between atoms: _349  and  _351
REMARK  143  A    between atoms: _351  and  _352
REMARK  144  A    between atoms: _355  and  _357
REMARK  145  A    between atoms: _357  and  _358
REMARK  146  A    between atoms: _357  and  _360
REMARK  147  A    between atoms: _360  and  _361
REMARK  148  A    between atoms: _361  and  _362
REMARK  149  A    between atoms: _367  and  _369
REMARK  150  A    between atoms: _369  and  _370
REMARK  151  A    between atoms: _372  and  _374
REMARK  152  A    between atoms: _374  and  _375
REMARK  153  A    between atoms: _377  and  _379
REMARK  154  A    between atoms: _379  and  _380
REMARK  155  A    between atoms: _379  and  _382
REMARK  156  A    between atoms: _382  and  _383
REMARK  157  A    between atoms: _386  and  _388
REMARK  158  A    between atoms: _388  and  _389
REMARK  159  A    between atoms: _388  and  _391
REMARK  160  A    between atoms: _394  and  _396
REMARK  161  A    between atoms: _396  and  _397
REMARK  162  A    between atoms: _399  and  _401
REMARK  163  A    between atoms: _401  and  _402
REMARK  164  A    between atoms: _401  and  _404
REMARK  165  A    between atoms: _404  and  _405
REMARK  166  A    between atoms: _405  and  _406
REMARK  167  A    between atoms: _406  and  _407
REMARK  168  A    between atoms: _416  and  _418
REMARK  169  A    between atoms: _418  and  _419
REMARK  170  A    between atoms: _418  and  _421
REMARK  171  A    between atoms: _421  and  _422
REMARK  172  A    between atoms: _424  and  _426
REMARK  173  A    between atoms: _426  and  _427
REMARK  174  A    between atoms: _426  and  _429
REMARK  175  A    between atoms: _429  and  _430
REMARK  176  A    between atoms: _433  and  _435
REMARK  177  A    between atoms: _435  and  _436
REMARK  178  A    between atoms: _435  and  _438
REMARK  179  A    between atoms: _438  and  _439
REMARK  180  A    between atoms: _444  and  _445
REMARK  181  A    between atoms: _447  and  _449
REMARK  182  A    between atoms: _449  and  _450
REMARK  183  A    between atoms: _449  and  _452
REMARK  184  A    between atoms: _452  and  _453
REMARK  185  A    between atoms: _456  and  _458
REMARK  186  A    between atoms: _458  and  _459
REMARK  187  A    between atoms: _462  and  _464
REMARK  188  A    between atoms: _464  and  _465
REMARK  189  A    between atoms: _464  and  _467
REMARK  190  A    between atoms: _467  and  _468
REMARK  191  A    between atoms: _471  and  _473
REMARK  192  A    between atoms: _473  and  _474
REMARK  193  A    between atoms: _473  and  _476
REMARK  194  A    between atoms: _476  and  _477
REMARK  195  A    between atoms: _481  and  _482
REMARK  196  A    between atoms: _487  and  _489
REMARK  197  A    between atoms: _489  and  _490
REMARK  198  A    between atoms: _489  and  _492
REMARK  199  A    between atoms: _492  and  _493
REMARK  200  A    between atoms: _493  and  _494
REMARK  201  A    between atoms: _497  and  _499
REMARK  202  A    between atoms: _499  and  _500
REMARK  203  A    between atoms: _499  and  _502
REMARK  204  A    between atoms: _502  and  _503
REMARK  205  A    between atoms: _506  and  _508
REMARK  206  A    between atoms: _508  and  _509
REMARK  207  A    between atoms: _508  and  _511
REMARK  208  A    between atoms: _511  and  _512
REMARK  209  A    between atoms: _517  and  _519
REMARK  210  A    between atoms: _519  and  _520
REMARK  211  A    between atoms: _519  and  _522
REMARK  212  A    between atoms: _522  and  _523
REMARK  213  A    between atoms: _523  and  _524
REMARK  214  A    between atoms: _524  and  _525
REMARK  215  A    between atoms: _525  and  _526
REMARK  216  A    between atoms: _530  and  _532
REMARK  217  A    between atoms: _532  and  _533
REMARK  218  A    between atoms: _532  and  _535
REMARK  219  A    between atoms: _535  and  _536
REMARK                            x       y       z     vdW  Elec       q    Type
REMARK                         _______ _______ _______ _____ _____    ______ ____
ROOT
ATOM      1  C   PRO A   4      26.455  -9.147  16.054  0.00  0.00    +0.241 C 
ATOM      2  O   PRO A   4      25.599  -8.647  16.825  0.00  0.00    -0.273 OA
ATOM      3  N   GLU A   5      26.128  -9.673  14.863  0.00  0.00    -0.297 N 
ATOM      4  H   GLU A   5      26.835 -10.196  14.309  0.00  0.00    +0.150 HD
ENDROOT
BRANCH   1   8
ATOM      5  C   ILE A   3      27.939 -11.635  16.732  0.00  0.00    +0.244 C 
ATOM      6  O   ILE A   3      26.847 -11.567  17.290  0.00  0.00    -0.273 OA
ATOM      7  N   PRO A   4      28.551 -10.542  16.249  0.00  0.00    -0.272 N 
ATOM      8  CA  PRO A   4      27.935  -9.237  16.471  0.00  0.00    +0.152 C 
ATOM      9  CB  PRO A   4      28.817  -8.277  15.619  0.00  0.00    +0.031 C 
ATOM     10  CG  PRO A   4      30.157  -8.907  15.732  0.00  0.00    +0.024 C 
ATOM     11  CD  PRO A   4      29.902 -10.424  15.663  0.00  0.00    +0.094 C 
BRANCH   5  12
ATOM     12  CA  ILE A   3      28.674 -12.983  16.594  0.00  0.00    +0.149 C 
BRANCH  12  15
ATOM     13  C   ASP A   2      28.294 -13.815  18.857  0.00  0.00    +0.241 C 
ATOM     14  O   ASP A   2      29.017 -12.942  19.372  0.00  0.00    -0.273 OA
ATOM     15  N   ILE A   3      28.077 -13.927  17.542  0.00  0.00    -0.297 N 
ATOM     16  H   ILE A   3      27.475 -14.697  17.187  0.00  0.00    +0.150 HD
BRANCH  13  17
ATOM     17  CA  ASP A   2      27.547 -14.845  19.720  0.00  0.00    +0.160 C 
BRANCH  17  20
ATOM     18  C   ALA A   1      28.226 -15.405  21.989  0.00  0.00    +0.238 C 
ATOM     19  O   ALA A   1      28.706 -16.479  21.623  0.00  0.00    -0.274 OA
ATOM     20  N   ASP A   2      27.698 -14.519  21.148  0.00  0.00    -0.297 N 
ATOM     21  H   ASP A   2      27.390 -13.591  21.502  0.00  0.00    +0.150 HD
BRANCH  18  22
ATOM     22  CA  ALA A   1      28.305 -14.969  23.452  0.00  0.00    +0.145 C 
ATOM     23  CB  ALA A   1      28.769 -16.128  24.320  0.00  0.00    +0.028 C 
BRANCH  22  24
ATOM     24  N   ALA A   1      27.037 -14.474  23.949  0.00  0.00    -0.238 NA
ATOM     25  H   ALA A   1      26.146 -14.842  23.558  0.00  0.00    +0.142 HD
ENDBRANCH  22  24
ENDBRANCH  18  22
ENDBRANCH  17  20
BRANCH  17  26
ATOM     26  CB  ASP A   2      26.055 -14.989  19.352  0.00  0.00    +0.143 C 
BRANCH  26  27
ATOM     27  CG  ASP A   2      25.827 -16.109  18.355  0.00  0.00    +0.367 C 
ATOM     28  OD2 ASP A   2      25.168 -17.117  18.741  0.00  0.00    -0.246 OA
ATOM     29  OD1 ASP A   2      26.350 -16.041  17.210  0.00  0.00    -0.246 OA
ENDBRANCH  26  27
ENDBRANCH  17  26
ENDBRANCH  13  17
ENDBRANCH  12  15
BRANCH  12  30
ATOM     30  CB  ILE A   3      28.621 -13.510  15.142  0.00  0.00    +0.027 C 
ATOM     31  CG2 ILE A   3      29.257 -14.922  15.060  0.00  0.00    +0.002 C 
BRANCH  30  32
ATOM     32  CG1 ILE A   3      27.166 -13.526  14.680  0.00  0.00    +0.002 C 
ATOM     33  CD1 ILE A   3      26.968 -13.831  13.149  0.00  0.00    +0.000 C 
ENDBRANCH  30  32
ENDBRANCH  12  30
ENDBRANCH   5  12
ENDBRANCH   1   8
BRANCH   3  34
ATOM     34  CA  GLU A   5      24.765  -9.503  14.351  0.00  0.00    +0.149 C 
BRANCH  34  35
ATOM     35  C   GLU A   5      23.720 -10.216  15.212  0.00  0.00    +0.241 C 
ATOM     36  N   THR A   6      24.105 -11.394  15.758  0.00  0.00    -0.295 N 
ATOM     37  H   THR A   6      25.063 -11.756  15.576  0.00  0.00    +0.150 HD
ATOM     38  O   GLU A   5      22.578  -9.757  15.377  0.00  0.00    -0.273 OA
BRANCH  36  39
ATOM     39  CA  THR A   6      23.186 -12.166  16.604  0.00  0.00    +0.176 C 
BRANCH  39  40
ATOM     40  C   THR A   6      23.108 -11.518  17.974  0.00  0.00    +0.243 C 
ATOM     41  O   THR A   6      22.015 -11.439  18.586  0.00  0.00    -0.273 OA
ATOM     42  N   ASN A   7      24.262 -11.043  18.460  0.00  0.00    -0.298 N 
ATOM     43  H   ASN A   7      25.148 -11.170  17.930  0.00  0.00    +0.150 HD
BRANCH  42  44
ATOM     44  CA  ASN A   7      24.262 -10.345  19.742  0.00  0.00    +0.146 C 
BRANCH  44  45
ATOM     45  C   ASN A   7      23.310  -9.143  19.674  0.00  0.00    +0.227 C 
ATOM     46  O   ASN A   7      22.587  -8.911  20.643  0.00  0.00    -0.286 OA
ENDBRANCH  44  45
BRANCH  44  47
ATOM     47  CB  ASN A   7      25.667  -9.837  20.100  0.00  0.00    +0.112 C 
BRANCH  47  48
ATOM     48  CG  ASN A   7      26.552 -10.935  20.682  0.00  0.00    +0.222 C 
ATOM     49  ND2 ASN A   7      27.706 -10.535  21.213  0.00  0.00    -0.329 N 
ATOM     50 HD21 ASN A   7      28.343 -11.228  21.656  0.00  0.00    +0.145 HD
ATOM     51 HD22 ASN A   7      27.971  -9.530  21.185  0.00  0.00    +0.145 HD
ATOM     52  OD1 ASN A   7      26.183 -12.117  20.685  0.00  0.00    -0.275 OA
ENDBRANCH  47  48
ENDBRANCH  44  47
ENDBRANCH  42  44
ENDBRANCH  39  40
BRANCH  39  53
ATOM     53  CB  THR A   6      23.633 -13.605  16.690  0.00  0.00    +0.137 C 
ATOM     54  CG2 THR A   6      22.823 -14.389  17.702  0.00  0.00    +0.034 C 
BRANCH  53  55
ATOM     55  OG1 THR A   6      23.458 -14.162  15.377  0.00  0.00    -0.382 OA
ATOM     56  HG1 THR A   6      23.740 -15.111  15.382  0.00  0.00    +0.210 HD
ENDBRANCH  53  55
ENDBRANCH  39  53
ENDBRANCH  36  39
ENDBRANCH  34  35
BRANCH  34  57
ATOM     57  CB  GLU A   5      24.708 -10.069  12.935  0.00  0.00    +0.041 C 
BRANCH  57  58
ATOM     58  CG  GLU A   5      25.380  -9.211  11.931  0.00  0.00    +0.116 C 
BRANCH  58  59
ATOM     59  CD  GLU A   5      26.898  -9.462  11.767  0.00  0.00    +0.365 C 
ATOM     60  OE2 GLU A   5      27.601 -10.186  12.534  0.00  0.00    -0.246 OA
ATOM     61  OE1 GLU A   5      27.416  -8.871  10.786  0.00  0.00    -0.246 OA
ENDBRANCH  58  59
ENDBRANCH  57  58
ENDBRANCH  34  57
ENDBRANCH   3  34
TORSDOF 24
REMARK  Name = ../refined-set-2016/2zz2/2zz2_pocket.pdb
REMARK  219 active torsions:
REMARK  status: ('A' for Active; 'I' for Inactive)
REMARK    1  A    between atoms: _1  and  _3
REMARK    2  A    between atoms: _3  and  _4
REMARK    3  A    between atoms: _3  and  _6
REMARK    4  A    between atoms: _6  and  _7
REMARK    5  A    between atoms: _10  and  _12
REMARK    6  A    between atoms: _12  and  _13
REMARK    7  A    between atoms: _12  and  _15
REMARK    8  A    between atoms: _15  and  _16
REMARK    9  A    between atoms: _19  and  _21
REMARK   10  A    between atoms: _21  and  _22
REMARK   11  A    between atoms: _25  and  _27
REMARK   12  A    between atoms: _27  and  _28
REMARK   13  A    between atoms: _27  and  _30
REMARK   14  A    between atoms: _30  and  _31
REMARK   15  A    between atoms: _31  and  _32
REMARK   16  A    between atoms: _34  and  _36
REMARK   17  A    between atoms: _36  and  _37
REMARK   18  A    between atoms: _36  and  _39
REMARK   19  A    between atoms: _39  and  _40
REMARK   20  A    between atoms: _43  and  _45
REMARK   21  A    between atoms: _45  and  _46
REMARK   22  A    between atoms: _45  and  _48
REMARK   23  A    between atoms: _48  and  _49
REMARK   24  A    between atoms: _49  and  _50
REMARK   25  A    between atoms: _50  and  _51
REMARK   26  A    between atoms: _51  and  _52
REMARK   27  A    between atoms: _56  and  _58
REMARK   28  A    between atoms: _58  and  _59
REMARK   29  A    between atoms: _58  and  _61
REMARK   30  A    between atoms: _61  and  _62
REMARK   31  A    between atoms: _65  and  _67
REMARK   32  A    between atoms: _67  and  _68
REMARK   33  A    between atoms: _70  and  _72
REMARK   34  A    between atoms: _72  and  _73
REMARK   35  A    between atoms: _72  and  _75
REMARK   36  A    between atoms: _75  and  _76
REMARK   37  A    between atoms: _81  and  _82
REMARK   38  A    between atoms: _85  and  _86
REMARK   39  A    between atoms: _91  and  _93
REMARK   40  A    between atoms: _93  and  _94
REMARK   41  A    between atoms: _93  and  _96
REMARK   42  A    between atoms: _96  and  _97
REMARK   43  A    between atoms: _100  and  _102
REMARK   44  A    between atoms: _102  and  _103
REMARK   45  A    between atoms: _102  and  _105
REMARK   46  A    between atoms: _105  and  _106
REMARK   47  A    between atoms: _109  and  _111
REMARK   48  A    between atoms: _111  and  _112
REMARK   49  A    between atoms: _115  and  _117
REMARK   50  A    between atoms: _117  and  _118
REMARK   51  A    between atoms: _117  and  _120
REMARK   52  A    between atoms: _120  and  _121
REMARK   53  A    between atoms: _124  and  _126
REMARK   54  A    between atoms: _126  and  _127
REMARK   55  A    between atoms: _126  and  _129
REMARK   56  A    between atoms: _129  and  _130
REMARK   57  A    between atoms: _136  and  _138
REMARK   58  A    between atoms: _138  and  _139
REMARK   59  A    between atoms: _142  and  _144
REMARK   60  A    between atoms: _144  and  _145
REMARK   61  A    between atoms: _144  and  _147
REMARK   62  A    between atoms: _147  and  _148
REMARK   63  A    between atoms: _151  and  _153
REMARK   64  A    between atoms: _153  and  _154
REMARK   65  A    between atoms: _153  and  _156
REMARK   66  A    between atoms: _159  and  _161
REMARK   67  A    between atoms: _161  and  _162
REMARK   68  A    between atoms: _161  and  _164
REMARK   69  A    between atoms: _164  and  _165
REMARK   70  A    between atoms: _170  and  _172
REMARK   71  A    between atoms: _172  and  _173
REMARK   72  A    between atoms: _172  and  _175
REMARK   73  A    between atoms: _175  and  _176
REMARK   74  A    between atoms: _182  and  _184
REMARK   75  A    between atoms: _184  and  _185
REMARK   76  A    between atoms: _184  and  _187
REMARK   77  A    between atoms: _187  and  _188
REMARK   78  A    between atoms: _191  and  _193
REMARK   79  A    between atoms: _193  and  _194
REMARK   80  A    between atoms: _193  and  _196
REMARK   81  A    between atoms: _196  and  _197
REMARK   82  A    between atoms: _200  and  _202
REMARK   83  A    between atoms: _202  and  _203
REMARK   84  A    between atoms: _202  and  _205
REMARK   85  A    between atoms: _205  and  _206
REMARK   86  A    between atoms: _206  and  _207
REMARK   87  A    between atoms: _210  and  _212
REMARK   88  A    between atoms: _212  and  _213
REMARK   89  A    between atoms: _212  and  _215
REMARK   90  A    between atoms: _215  and  _216
REMARK   91  A    between atoms: _216  and  _217
REMARK   92  A    between atoms: _219  and  _221
REMARK   93  A    between atoms: _221  and  _222
REMARK   94  A    between atoms: _221  and  _224
REMARK   95  A    between atoms: _224  and  _225
REMARK   96  A    between atoms: _227  and  _229
REMARK   97  A    between atoms: _229  and  _230
REMARK   98  A    between atoms: _229  and  _232
REMARK   99  A    between atoms: _232  and  _233
REMARK  100  A    between atoms: _238  and  _240
REMARK  101  A    between atoms: _240  and  _241
REMARK  102  A    between atoms: _244  and  _246
REMARK  103  A    between atoms: _246  and  _247
REMARK  104  A    between atoms: _246  and  _249
REMARK  105  A    between atoms: _249  and  _250
REMARK  106  A    between atoms: _253  and  _255
REMARK  107  A    between atoms: _255  and  _256
REMARK  108  A    between atoms: _255  and  _258
REMARK  109  A    between atoms: _261  and  _263
REMARK  110  A    between atoms: _263  and  _264
REMARK  111  A    between atoms: _267  and  _268
REMARK  112  A    between atoms: _273  and  _275
REMARK  113  A    between atoms: _275  and  _276
REMARK  114  A    between atoms: _275  and  _278
REMARK  115  A    between atoms: _278  and  _279
REMARK  116  A    between atoms: _281  and  _283
REMARK  117  A    between atoms: _283  and  _284
REMARK  118  A    between atoms: _283  and  _286
REMARK  119  A    between atoms: _286  and  _287
REMARK  120  A    between atoms: _290  and  _292
REMARK  121  A    between atoms: _292  and  _293
REMARK  122  A    between atoms: _292  and  _295
REMARK  123  A    between atoms: _295  and  _296
REMARK  124  A    between atoms: _296  and  _297
REMARK  125  A    between atoms: _297  and  _298
REMARK  126  A    between atoms: _307  and  _309
REMARK  127  A    between atoms: _309  and  _310
REMARK  128  A    between atoms: _309  and  _312
REMARK  129  A    between atoms: _312  and  _313
REMARK  130  A    between atoms: _316  and  _318
REMARK  131  A    between atoms: _318  and  _319
REMARK  132  A    between atoms: _318  and  _321
REMARK  133  A    between atoms: _321  and  _322
REMARK  134  A    between atoms: _325  and  _326
REMARK  135  A    between atoms: _331  and  _333
REMARK  136  A    between atoms: _333  and  _334
REMARK  137  A    between atoms: _336  and  _338
REMARK  138  A    between atoms: _338  and  _339
REMARK  139  A    between atoms: _338  and  _341
REMARK  140  A    between atoms: _344  and  _346
REMARK  141  A    between atoms: _346  and  _347
REMARK  142  A    between atoms: _349  and  _351
REMARK  143  A    between atoms: _351  and  _352
REMARK  144  A    between atoms: _355  and  _357
REMARK  145  A    between atoms: _357  and  _358
REMARK  146  A    between atoms: _357  and  _360
REMARK  147  A    between atoms: _360  and  _361
REMARK  148  A    between atoms: _361  and  _362
REMARK  149  A    between atoms: _367  and  _369
REMARK  150  A    between atoms: _369  and  _370
REMARK  151  A    between atoms: _372  and  _374
REMARK  152  A    between atoms: _374  and  _375
REMARK  153  A    between atoms: _377  and  _379
REMARK  154  A    between atoms: _379  and  _380
REMARK  155  A    between atoms: _379  and  _382
REMARK  156  A    between atoms: _382  and  _383
REMARK  157  A    between atoms: _386  and  _388
REMARK  158  A    between atoms: _388  and  _389
REMARK  159  A    between atoms: _388  and  _391
REMARK  160  A    between atoms: _394  and  _396
REMARK  161  A    between atoms: _396  and  _397
REMARK  162  A    between atoms: _399  and  _401
REMARK  163  A    between atoms: _401  and  _402
REMARK  164  A    between atoms: _401  and  _404
REMARK  165  A    between atoms: _404  and  _405
REMARK  166  A    between atoms: _405  and  _406
REMARK  167  A    between atoms: _406  and  _407
REMARK  168  A    between atoms: _416  and  _418
REMARK  169  A    between atoms: _418  and  _419
REMARK  170  A    between atoms: _418  and  _421
REMARK  171  A    between atoms: _421  and  _422
REMARK  172  A    between atoms: _424  and  _426
REMARK  173  A    between atoms: _426  and  _427
REMARK  174  A    between atoms: _426  and  _429
REMARK  175  A    between atoms: _429  and  _430
REMARK  176  A    between atoms: _433  and  _435
REMARK  177  A    between atoms: _435  and  _436
REMARK  178  A    between atoms: _435  and  _438
REMARK  179  A    between atoms: _438  and  _439
REMARK  180  A    between atoms: _444  and  _445
REMARK  181  A    between atoms: _447  and  _449
REMARK  182  A    between atoms: _449  and  _450
REMARK  183  A    between atoms: _449  and  _452
REMARK  184  A    between atoms: _452  and  _453
REMARK  185  A    between atoms: _456  and  _458
REMARK  186  A    between atoms: _458  and  _459
REMARK  187  A    between atoms: _462  and  _464
REMARK  188  A    between atoms: _464  and  _465
REMARK  189  A    between atoms: _464  and  _467
REMARK  190  A    between atoms: _467  and  _468
REMARK  191  A    between atoms: _471  and  _473
REMARK  192  A    between atoms: _473  and  _474
REMARK  193  A    between atoms: _473  and  _476
REMARK  194  A    between atoms: _476  and  _477
REMARK  195  A    between atoms: _481  and  _482
REMARK  196  A    between atoms: _487  and  _489
REMARK  197  A    between atoms: _489  and  _490
REMARK  198  A    between atoms: _489  and  _492
REMARK  199  A    between atoms: _492  and  _493
REMARK  200  A    between atoms: _493  and  _494
REMARK  201  A    between atoms: _497  and  _499
REMARK  202  A    between atoms: _499  and  _500
REMARK  203  A    between atoms: _499  and  _502
REMARK  204  A    between atoms: _502  and  _503
REMARK  205  A    between atoms: _506  and  _508
REMARK  206  A    between atoms: _508  and  _509
REMARK  207  A    between atoms: _508  and  _511
REMARK  208  A    between atoms: _511  and  _512
REMARK  209  A    between atoms: _517  and  _519
REMARK  210  A    between atoms: _519  and  _520
REMARK  211  A    between atoms: _519  and  _522
REMARK  212  A    between atoms: _522  and  _523
REMARK  213  A    between atoms: _523  and  _524
REMARK  214  A    between atoms: _524  and  _525
REMARK  215  A    between atoms: _525  and  _526
REMARK  216  A    between atoms: _530  and  _532
REMARK  217  A    between atoms: _532  and  _533
REMARK  218  A    between atoms: _532  and  _535
REMARK  219  A    between atoms: _535  and  _536
REMARK                            x       y       z     vdW  Elec       q    Type
REMARK                         _______ _______ _______ _____ _____    ______ ____
ROOT
ATOM      1  CA  LYS A   1      19.219  -9.236  18.032  0.00  0.00    +0.145 C 
ENDROOT
BRANCH   1   2
ATOM      2  C   LYS A   1      18.830  -9.695  19.424  0.00  0.00    +0.238 C 
ATOM      3  N   ILE A   2      19.747 -10.401  20.091  0.00  0.00    -0.298 N 
ATOM      4  H   ILE A   2      20.657 -10.630  19.642  0.00  0.00    +0.150 HD
ATOM      5  O   LYS A   1      17.754  -9.365  19.922  0.00  0.00    -0.274 OA
BRANCH   3   6
ATOM      6  CA  ILE A   2      19.468 -10.850  21.452  0.00  0.00    +0.137 C 
BRANCH   6   7
ATOM      7  C   ILE A   2      19.286  -9.643  22.407  0.00  0.00    +0.227 C 
ATOM      8  O   ILE A   2      18.343  -9.591  23.189  0.00  0.00    -0.286 OA
ENDBRANCH   6   7
BRANCH   6   9
ATOM      9  CB  ILE A   2      20.607 -11.739  21.963  0.00  0.00    +0.026 C 
ATOM     10  CG2 ILE A   2      20.463 -12.005  23.443  0.00  0.00    +0.002 C 
BRANCH   9  11
ATOM     11  CG1 ILE A   2      20.612 -13.048  21.141  0.00  0.00    +0.002 C 
ATOM     12  CD1 ILE A   2      21.860 -13.924  21.353  0.00  0.00    +0.000 C 
ENDBRANCH   9  11
ENDBRANCH   6   9
ENDBRANCH   3   6
ENDBRANCH   1   2
BRANCH   1  13
ATOM     13  N   LYS A   1      20.615  -8.750  17.995  0.00  0.00    -0.238 NA
ATOM     14  H   LYS A   1      21.331  -9.286  17.464  0.00  0.00    +0.142 HD
ENDBRANCH   1  13
BRANCH   1  15
ATOM     15  CB  LYS A   1      19.061 -10.392  17.062  0.00  0.00    +0.026 C 
BRANCH  15  16
ATOM     16  CG  LYS A   1      19.302  -9.965  15.604  0.00  0.00    -0.000 C 
BRANCH  16  17
ATOM     17  CD  LYS A   1      19.384 -11.208  14.695  0.00  0.00    -0.024 C 
BRANCH  17  18
ATOM     18  CE  LYS A   1      19.431 -10.845  13.214  0.00  0.00    -0.086 C 
BRANCH  18  19
ATOM     19  NZ  LYS A   1      20.797 -10.688  12.665  0.00  0.00    +0.380 N 
ATOM     20  HZ1 LYS A   1      21.291  -9.931  13.179  0.00  0.00    -0.089 HD
ATOM     21  HZ2 LYS A   1      21.318 -11.581  12.775  0.00  0.00    -0.089 HD
ATOM     22  HZ3 LYS A   1      20.738 -10.442  11.656  0.00  0.00    -0.089 HD
ENDBRANCH  18  19
ENDBRANCH  17  18
ENDBRANCH  16  17
ENDBRANCH  15  16
ENDBRANCH   1  15
TORSDOF 11
REMARK  Name = ../refined-set-2016/2zz2/2zz2_pocket.pdb
REMARK  219 active torsions:
REMARK  status: ('A' for Active; 'I' for Inactive)
REMARK    1  A    between atoms: _1  and  _3
REMARK    2  A    between atoms: _3  and  _4
REMARK    3  A    between atoms: _3  and  _6
REMARK    4  A    between atoms: _6  and  _7
REMARK    5  A    between atoms: _10  and  _12
REMARK    6  A    between atoms: _12  and  _13
REMARK    7  A    between atoms: _12  and  _15
REMARK    8  A    between atoms: _15  and  _16
REMARK    9  A    between atoms: _19  and  _21
REMARK   10  A    between atoms: _21  and  _22
REMARK   11  A    between atoms: _25  and  _27
REMARK   12  A    between atoms: _27  and  _28
REMARK   13  A    between atoms: _27  and  _30
REMARK   14  A    between atoms: _30  and  _31
REMARK   15  A    between atoms: _31  and  _32
REMARK   16  A    between atoms: _34  and  _36
REMARK   17  A    between atoms: _36  and  _37
REMARK   18  A    between atoms: _36  and  _39
REMARK   19  A    between atoms: _39  and  _40
REMARK   20  A    between atoms: _43  and  _45
REMARK   21  A    between atoms: _45  and  _46
REMARK   22  A    between atoms: _45  and  _48
REMARK   23  A    between atoms: _48  and  _49
REMARK   24  A    between atoms: _49  and  _50
REMARK   25  A    between atoms: _50  and  _51
REMARK   26  A    between atoms: _51  and  _52
REMARK   27  A    between atoms: _56  and  _58
REMARK   28  A    between atoms: _58  and  _59
REMARK   29  A    between atoms: _58  and  _61
REMARK   30  A    between atoms: _61  and  _62
REMARK   31  A    between atoms: _65  and  _67
REMARK   32  A    between atoms: _67  and  _68
REMARK   33  A    between atoms: _70  and  _72
REMARK   34  A    between atoms: _72  and  _73
REMARK   35  A    between atoms: _72  and  _75
REMARK   36  A    between atoms: _75  and  _76
REMARK   37  A    between atoms: _81  and  _82
REMARK   38  A    between atoms: _85  and  _86
REMARK   39  A    between atoms: _91  and  _93
REMARK   40  A    between atoms: _93  and  _94
REMARK   41  A    between atoms: _93  and  _96
REMARK   42  A    between atoms: _96  and  _97
REMARK   43  A    between atoms: _100  and  _102
REMARK   44  A    between atoms: _102  and  _103
REMARK   45  A    between atoms: _102  and  _105
REMARK   46  A    between atoms: _105  and  _106
REMARK   47  A    between atoms: _109  and  _111
REMARK   48  A    between atoms: _111  and  _112
REMARK   49  A    between atoms: _115  and  _117
REMARK   50  A    between atoms: _117  and  _118
REMARK   51  A    between atoms: _117  and  _120
REMARK   52  A    between atoms: _120  and  _121
REMARK   53  A    between atoms: _124  and  _126
REMARK   54  A    between atoms: _126  and  _127
REMARK   55  A    between atoms: _126  and  _129
REMARK   56  A    between atoms: _129  and  _130
REMARK   57  A    between atoms: _136  and  _138
REMARK   58  A    between atoms: _138  and  _139
REMARK   59  A    between atoms: _142  and  _144
REMARK   60  A    between atoms: _144  and  _145
REMARK   61  A    between atoms: _144  and  _147
REMARK   62  A    between atoms: _147  and  _148
REMARK   63  A    between atoms: _151  and  _153
REMARK   64  A    between atoms: _153  and  _154
REMARK   65  A    between atoms: _153  and  _156
REMARK   66  A    between atoms: _159  and  _161
REMARK   67  A    between atoms: _161  and  _162
REMARK   68  A    between atoms: _161  and  _164
REMARK   69  A    between atoms: _164  and  _165
REMARK   70  A    between atoms: _170  and  _172
REMARK   71  A    between atoms: _172  and  _173
REMARK   72  A    between atoms: _172  and  _175
REMARK   73  A    between atoms: _175  and  _176
REMARK   74  A    between atoms: _182  and  _184
REMARK   75  A    between atoms: _184  and  _185
REMARK   76  A    between atoms: _184  and  _187
REMARK   77  A    between atoms: _187  and  _188
REMARK   78  A    between atoms: _191  and  _193
REMARK   79  A    between atoms: _193  and  _194
REMARK   80  A    between atoms: _193  and  _196
REMARK   81  A    between atoms: _196  and  _197
REMARK   82  A    between atoms: _200  and  _202
REMARK   83  A    between atoms: _202  and  _203
REMARK   84  A    between atoms: _202  and  _205
REMARK   85  A    between atoms: _205  and  _206
REMARK   86  A    between atoms: _206  and  _207
REMARK   87  A    between atoms: _210  and  _212
REMARK   88  A    between atoms: _212  and  _213
REMARK   89  A    between atoms: _212  and  _215
REMARK   90  A    between atoms: _215  and  _216
REMARK   91  A    between atoms: _216  and  _217
REMARK   92  A    between atoms: _219  and  _221
REMARK   93  A    between atoms: _221  and  _222
REMARK   94  A    between atoms: _221  and  _224
REMARK   95  A    between atoms: _224  and  _225
REMARK   96  A    between atoms: _227  and  _229
REMARK   97  A    between atoms: _229  and  _230
REMARK   98  A    between atoms: _229  and  _232
REMARK   99  A    between atoms: _232  and  _233
REMARK  100  A    between atoms: _238  and  _240
REMARK  101  A    between atoms: _240  and  _241
REMARK  102  A    between atoms: _244  and  _246
REMARK  103  A    between atoms: _246  and  _247
REMARK  104  A    between atoms: _246  and  _249
REMARK  105  A    between atoms: _249  and  _250
REMARK  106  A    between atoms: _253  and  _255
REMARK  107  A    between atoms: _255  and  _256
REMARK  108  A    between atoms: _255  and  _258
REMARK  109  A    between atoms: _261  and  _263
REMARK  110  A    between atoms: _263  and  _264
REMARK  111  A    between atoms: _267  and  _268
REMARK  112  A    between atoms: _273  and  _275
REMARK  113  A    between atoms: _275  and  _276
REMARK  114  A    between atoms: _275  and  _278
REMARK  115  A    between atoms: _278  and  _279
REMARK  116  A    between atoms: _281  and  _283
REMARK  117  A    between atoms: _283  and  _284
REMARK  118  A    between atoms: _283  and  _286
REMARK  119  A    between atoms: _286  and  _287
REMARK  120  A    between atoms: _290  and  _292
REMARK  121  A    between atoms: _292  and  _293
REMARK  122  A    between atoms: _292  and  _295
REMARK  123  A    between atoms: _295  and  _296
REMARK  124  A    between atoms: _296  and  _297
REMARK  125  A    between atoms: _297  and  _298
REMARK  126  A    between atoms: _307  and  _309
REMARK  127  A    between atoms: _309  and  _310
REMARK  128  A    between atoms: _309  and  _312
REMARK  129  A    between atoms: _312  and  _313
REMARK  130  A    between atoms: _316  and  _318
REMARK  131  A    between atoms: _318  and  _319
REMARK  132  A    between atoms: _318  and  _321
REMARK  133  A    between atoms: _321  and  _322
REMARK  134  A    between atoms: _325  and  _326
REMARK  135  A    between atoms: _331  and  _333
REMARK  136  A    between atoms: _333  and  _334
REMARK  137  A    between atoms: _336  and  _338
REMARK  138  A    between atoms: _338  and  _339
REMARK  139  A    between atoms: _338  and  _341
REMARK  140  A    between atoms: _344  and  _346
REMARK  141  A    between atoms: _346  and  _347
REMARK  142  A    between atoms: _349  and  _351
REMARK  143  A    between atoms: _351  and  _352
REMARK  144  A    between atoms: _355  and  _357
REMARK  145  A    between atoms: _357  and  _358
REMARK  146  A    between atoms: _357  and  _360
REMARK  147  A    between atoms: _360  and  _361
REMARK  148  A    between atoms: _361  and  _362
REMARK  149  A    between atoms: _367  and  _369
REMARK  150  A    between atoms: _369  and  _370
REMARK  151  A    between atoms: _372  and  _374
REMARK  152  A    between atoms: _374  and  _375
REMARK  153  A    between atoms: _377  and  _379
REMARK  154  A    between atoms: _379  and  _380
REMARK  155  A    between atoms: _379  and  _382
REMARK  156  A    between atoms: _382  and  _383
REMARK  157  A    between atoms: _386  and  _388
REMARK  158  A    between atoms: _388  and  _389
REMARK  159  A    between atoms: _388  and  _391
REMARK  160  A    between atoms: _394  and  _396
REMARK  161  A    between atoms: _396  and  _397
REMARK  162  A    between atoms: _399  and  _401
REMARK  163  A    between atoms: _401  and  _402
REMARK  164  A    between atoms: _401  and  _404
REMARK  165  A    between atoms: _404  and  _405
REMARK  166  A    between atoms: _405  and  _406
REMARK  167  A    between atoms: _406  and  _407
REMARK  168  A    between atoms: _416  and  _418
REMARK  169  A    between atoms: _418  and  _419
REMARK  170  A    between atoms: _418  and  _421
REMARK  171  A    between atoms: _421  and  _422
REMARK  172  A    between atoms: _424  and  _426
REMARK  173  A    between atoms: _426  and  _427
REMARK  174  A    between atoms: _426  and  _429
REMARK  175  A    between atoms: _429  and  _430
REMARK  176  A    between atoms: _433  and  _435
REMARK  177  A    between atoms: _435  and  _436
REMARK  178  A    between atoms: _435  and  _438
REMARK  179  A    between atoms: _438  and  _439
REMARK  180  A    between atoms: _444  and  _445
REMARK  181  A    between atoms: _447  and  _449
REMARK  182  A    between atoms: _449  and  _450
REMARK  183  A    between atoms: _449  and  _452
REMARK  184  A    between atoms: _452  and  _453
REMARK  185  A    between atoms: _456  and  _458
REMARK  186  A    between atoms: _458  and  _459
REMARK  187  A    between atoms: _462  and  _464
REMARK  188  A    between atoms: _464  and  _465
REMARK  189  A    between atoms: _464  and  _467
REMARK  190  A    between atoms: _467  and  _468
REMARK  191  A    between atoms: _471  and  _473
REMARK  192  A    between atoms: _473  and  _474
REMARK  193  A    between atoms: _473  and  _476
REMARK  194  A    between atoms: _476  and  _477
REMARK  195  A    between atoms: _481  and  _482
REMARK  196  A    between atoms: _487  and  _489
REMARK  197  A    between atoms: _489  and  _490
REMARK  198  A    between atoms: _489  and  _492
REMARK  199  A    between atoms: _492  and  _493
REMARK  200  A    between atoms: _493  and  _494
REMARK  201  A    between atoms: _497  and  _499
REMARK  202  A    between atoms: _499  and  _500
REMARK  203  A    between atoms: _499  and  _502
REMARK  204  A    between atoms: _502  and  _503
REMARK  205  A    between atoms: _506  and  _508
REMARK  206  A    between atoms: _508  and  _509
REMARK  207  A    between atoms: _508  and  _511
REMARK  208  A    between atoms: _511  and  _512
REMARK  209  A    between atoms: _517  and  _519
REMARK  210  A    between atoms: _519  and  _520
REMARK  211  A    between atoms: _519  and  _522
REMARK  212  A    between atoms: _522  and  _523
REMARK  213  A    between atoms: _523  and  _524
REMARK  214  A    between atoms: _524  and  _525
REMARK  215  A    between atoms: _525  and  _526
REMARK  216  A    between atoms: _530  and  _532
REMARK  217  A    between atoms: _532  and  _533
REMARK  218  A    between atoms: _532  and  _535
REMARK  219  A    between atoms: _535  and  _536
REMARK                            x       y       z     vdW  Elec       q    Type
REMARK                         _______ _______ _______ _____ _____    ______ ____
ROOT
ATOM      1  O   HOH     1      27.442 -16.070   6.948  0.00  0.00    +0.000 OA
ENDROOT
TORSDOF 0
REMARK  Name = ../refined-set-2016/2zz2/2zz2_pocket.pdb
REMARK  219 active torsions:
REMARK  status: ('A' for Active; 'I' for Inactive)
REMARK    1  A    between atoms: _1  and  _3
REMARK    2  A    between atoms: _3  and  _4
REMARK    3  A    between atoms: _3  and  _6
REMARK    4  A    between atoms: _6  and  _7
REMARK    5  A    between atoms: _10  and  _12
REMARK    6  A    between atoms: _12  and  _13
REMARK    7  A    between atoms: _12  and  _15
REMARK    8  A    between atoms: _15  and  _16
REMARK    9  A    between atoms: _19  and  _21
REMARK   10  A    between atoms: _21  and  _22
REMARK   11  A    between atoms: _25  and  _27
REMARK   12  A    between atoms: _27  and  _28
REMARK   13  A    between atoms: _27  and  _30
REMARK   14  A    between atoms: _30  and  _31
REMARK   15  A    between atoms: _31  and  _32
REMARK   16  A    between atoms: _34  and  _36
REMARK   17  A    between atoms: _36  and  _37
REMARK   18  A    between atoms: _36  and  _39
REMARK   19  A    between atoms: _39  and  _40
REMARK   20  A    between atoms: _43  and  _45
REMARK   21  A    between atoms: _45  and  _46
REMARK   22  A    between atoms: _45  and  _48
REMARK   23  A    between atoms: _48  and  _49
REMARK   24  A    between atoms: _49  and  _50
REMARK   25  A    between atoms: _50  and  _51
REMARK   26  A    between atoms: _51  and  _52
REMARK   27  A    between atoms: _56  and  _58
REMARK   28  A    between atoms: _58  and  _59
REMARK   29  A    between atoms: _58  and  _61
REMARK   30  A    between atoms: _61  and  _62
REMARK   31  A    between atoms: _65  and  _67
REMARK   32  A    between atoms: _67  and  _68
REMARK   33  A    between atoms: _70  and  _72
REMARK   34  A    between atoms: _72  and  _73
REMARK   35  A    between atoms: _72  and  _75
REMARK   36  A    between atoms: _75  and  _76
REMARK   37  A    between atoms: _81  and  _82
REMARK   38  A    between atoms: _85  and  _86
REMARK   39  A    between atoms: _91  and  _93
REMARK   40  A    between atoms: _93  and  _94
REMARK   41  A    between atoms: _93  and  _96
REMARK   42  A    between atoms: _96  and  _97
REMARK   43  A    between atoms: _100  and  _102
REMARK   44  A    between atoms: _102  and  _103
REMARK   45  A    between atoms: _102  and  _105
REMARK   46  A    between atoms: _105  and  _106
REMARK   47  A    between atoms: _109  and  _111
REMARK   48  A    between atoms: _111  and  _112
REMARK   49  A    between atoms: _115  and  _117
REMARK   50  A    between atoms: _117  and  _118
REMARK   51  A    between atoms: _117  and  _120
REMARK   52  A    between atoms: _120  and  _121
REMARK   53  A    between atoms: _124  and  _126
REMARK   54  A    between atoms: _126  and  _127
REMARK   55  A    between atoms: _126  and  _129
REMARK   56  A    between atoms: _129  and  _130
REMARK   57  A    between atoms: _136  and  _138
REMARK   58  A    between atoms: _138  and  _139
REMARK   59  A    between atoms: _142  and  _144
REMARK   60  A    between atoms: _144  and  _145
REMARK   61  A    between atoms: _144  and  _147
REMARK   62  A    between atoms: _147  and  _148
REMARK   63  A    between atoms: _151  and  _153
REMARK   64  A    between atoms: _153  and  _154
REMARK   65  A    between atoms: _153  and  _156
REMARK   66  A    between atoms: _159  and  _161
REMARK   67  A    between atoms: _161  and  _162
REMARK   68  A    between atoms: _161  and  _164
REMARK   69  A    between atoms: _164  and  _165
REMARK   70  A    between atoms: _170  and  _172
REMARK   71  A    between atoms: _172  and  _173
REMARK   72  A    between atoms: _172  and  _175
REMARK   73  A    between atoms: _175  and  _176
REMARK   74  A    between atoms: _182  and  _184
REMARK   75  A    between atoms: _184  and  _185
REMARK   76  A    between atoms: _184  and  _187
REMARK   77  A    between atoms: _187  and  _188
REMARK   78  A    between atoms: _191  and  _193
REMARK   79  A    between atoms: _193  and  _194
REMARK   80  A    between atoms: _193  and  _196
REMARK   81  A    between atoms: _196  and  _197
REMARK   82  A    between atoms: _200  and  _202
REMARK   83  A    between atoms: _202  and  _203
REMARK   84  A    between atoms: _202  and  _205
REMARK   85  A    between atoms: _205  and  _206
REMARK   86  A    between atoms: _206  and  _207
REMARK   87  A    between atoms: _210  and  _212
REMARK   88  A    between atoms: _212  and  _213
REMARK   89  A    between atoms: _212  and  _215
REMARK   90  A    between atoms: _215  and  _216
REMARK   91  A    between atoms: _216  and  _217
REMARK   92  A    between atoms: _219  and  _221
REMARK   93  A    between atoms: _221  and  _222
REMARK   94  A    between atoms: _221  and  _224
REMARK   95  A    between atoms: _224  and  _225
REMARK   96  A    between atoms: _227  and  _229
REMARK   97  A    between atoms: _229  and  _230
REMARK   98  A    between atoms: _229  and  _232
REMARK   99  A    between atoms: _232  and  _233
REMARK  100  A    between atoms: _238  and  _240
REMARK  101  A    between atoms: _240  and  _241
REMARK  102  A    between atoms: _244  and  _246
REMARK  103  A    between atoms: _246  and  _247
REMARK  104  A    between atoms: _246  and  _249
REMARK  105  A    between atoms: _249  and  _250
REMARK  106  A    between atoms: _253  and  _255
REMARK  107  A    between atoms: _255  and  _256
REMARK  108  A    between atoms: _255  and  _258
REMARK  109  A    between atoms: _261  and  _263
REMARK  110  A    between atoms: _263  and  _264
REMARK  111  A    between atoms: _267  and  _268
REMARK  112  A    between atoms: _273  and  _275
REMARK  113  A    between atoms: _275  and  _276
REMARK  114  A    between atoms: _275  and  _278
REMARK  115  A    between atoms: _278  and  _279
REMARK  116  A    between atoms: _281  and  _283
REMARK  117  A    between atoms: _283  and  _284
REMARK  118  A    between atoms: _283  and  _286
REMARK  119  A    between atoms: _286  and  _287
REMARK  120  A    between atoms: _290  and  _292
REMARK  121  A    between atoms: _292  and  _293
REMARK  122  A    between atoms: _292  and  _295
REMARK  123  A    between atoms: _295  and  _296
REMARK  124  A    between atoms: _296  and  _297
REMARK  125  A    between atoms: _297  and  _298
REMARK  126  A    between atoms: _307  and  _309
REMARK  127  A    between atoms: _309  and  _310
REMARK  128  A    between atoms: _309  and  _312
REMARK  129  A    between atoms: _312  and  _313
REMARK  130  A    between atoms: _316  and  _318
REMARK  131  A    between atoms: _318  and  _319
REMARK  132  A    between atoms: _318  and  _321
REMARK  133  A    between atoms: _321  and  _322
REMARK  134  A    between atoms: _325  and  _326
REMARK  135  A    between atoms: _331  and  _333
REMARK  136  A    between atoms: _333  and  _334
REMARK  137  A    between atoms: _336  and  _338
REMARK  138  A    between atoms: _338  and  _339
REMARK  139  A    between atoms: _338  and  _341
REMARK  140  A    between atoms: _344  and  _346
REMARK  141  A    between atoms: _346  and  _347
REMARK  142  A    between atoms: _349  and  _351
REMARK  143  A    between atoms: _351  and  _352
REMARK  144  A    between atoms: _355  and  _357
REMARK  145  A    between atoms: _357  and  _358
REMARK  146  A    between atoms: _357  and  _360
REMARK  147  A    between atoms: _360  and  _361
REMARK  148  A    between atoms: _361  and  _362
REMARK  149  A    between atoms: _367  and  _369
REMARK  150  A    between atoms: _369  and  _370
REMARK  151  A    between atoms: _372  and  _374
REMARK  152  A    between atoms: _374  and  _375
REMARK  153  A    between atoms: _377  and  _379
REMARK  154  A    between atoms: _379  and  _380
REMARK  155  A    between atoms: _379  and  _382
REMARK  156  A    between atoms: _382  and  _383
REMARK  157  A    between atoms: _386  and  _388
REMARK  158  A    between atoms: _388  and  _389
REMARK  159  A    between atoms: _388  and  _391
REMARK  160  A    between atoms: _394  and  _396
REMARK  161  A    between atoms: _396  and  _397
REMARK  162  A    between atoms: _399  and  _401
REMARK  163  A    between atoms: _401  and  _402
REMARK  164  A    between atoms: _401  and  _404
REMARK  165  A    between atoms: _404  and  _405
REMARK  166  A    between atoms: _405  and  _406
REMARK  167  A    between atoms: _406  and  _407
REMARK  168  A    between atoms: _416  and  _418
REMARK  169  A    between atoms: _418  and  _419
REMARK  170  A    between atoms: _418  and  _421
REMARK  171  A    between atoms: _421  and  _422
REMARK  172  A    between atoms: _424  and  _426
REMARK  173  A    between atoms: _426  and  _427
REMARK  174  A    between atoms: _426  and  _429
REMARK  175  A    between atoms: _429  and  _430
REMARK  176  A    between atoms: _433  and  _435
REMARK  177  A    between atoms: _435  and  _436
REMARK  178  A    between atoms: _435  and  _438
REMARK  179  A    between atoms: _438  and  _439
REMARK  180  A    between atoms: _444  and  _445
REMARK  181  A    between atoms: _447  and  _449
REMARK  182  A    between atoms: _449  and  _450
REMARK  183  A    between atoms: _449  and  _452
REMARK  184  A    between atoms: _452  and  _453
REMARK  185  A    between atoms: _456  and  _458
REMARK  186  A    between atoms: _458  and  _459
REMARK  187  A    between atoms: _462  and  _464
REMARK  188  A    between atoms: _464  and  _465
REMARK  189  A    between atoms: _464  and  _467
REMARK  190  A    between atoms: _467  and  _468
REMARK  191  A    between atoms: _471  and  _473
REMARK  192  A    between atoms: _473  and  _474
REMARK  193  A    between atoms: _473  and  _476
REMARK  194  A    between atoms: _476  and  _477
REMARK  195  A    between atoms: _481  and  _482
REMARK  196  A    between atoms: _487  and  _489
REMARK  197  A    between atoms: _489  and  _490
REMARK  198  A    between atoms: _489  and  _492
REMARK  199  A    between atoms: _492  and  _493
REMARK  200  A    between atoms: _493  and  _494
REMARK  201  A    between atoms: _497  and  _499
REMARK  202  A    between atoms: _499  and  _500
REMARK  203  A    between atoms: _499  and  _502
REMARK  204  A    between atoms: _502  and  _503
REMARK  205  A    between atoms: _506  and  _508
REMARK  206  A    between atoms: _508  and  _509
REMARK  207  A    between atoms: _508  and  _511
REMARK  208  A    between atoms: _511  and  _512
REMARK  209  A    between atoms: _517  and  _519
REMARK  210  A    between atoms: _519  and  _520
REMARK  211  A    between atoms: _519  and  _522
REMARK  212  A    between atoms: _522  and  _523
REMARK  213  A    between atoms: _523  and  _524
REMARK  214  A    between atoms: _524  and  _525
REMARK  215  A    between atoms: _525  and  _526
REMARK  216  A    between atoms: _530  and  _532
REMARK  217  A    between atoms: _532  and  _533
REMARK  218  A    between atoms: _532  and  _535
REMARK  219  A    between atoms: _535  and  _536
REMARK                            x       y       z     vdW  Elec       q    Type
REMARK                         _______ _______ _______ _____ _____    ______ ____
ROOT
ATOM      1  O   HOH     1      24.463 -16.270   5.092  0.00  0.00    +0.000 OA
ENDROOT
TORSDOF 0
REMARK  Name = ../refined-set-2016/2zz2/2zz2_pocket.pdb
REMARK  219 active torsions:
REMARK  status: ('A' for Active; 'I' for Inactive)
REMARK    1  A    between atoms: _1  and  _3
REMARK    2  A    between atoms: _3  and  _4
REMARK    3  A    between atoms: _3  and  _6
REMARK    4  A    between atoms: _6  and  _7
REMARK    5  A    between atoms: _10  and  _12
REMARK    6  A    between atoms: _12  and  _13
REMARK    7  A    between atoms: _12  and  _15
REMARK    8  A    between atoms: _15  and  _16
REMARK    9  A    between atoms: _19  and  _21
REMARK   10  A    between atoms: _21  and  _22
REMARK   11  A    between atoms: _25  and  _27
REMARK   12  A    between atoms: _27  and  _28
REMARK   13  A    between atoms: _27  and  _30
REMARK   14  A    between atoms: _30  and  _31
REMARK   15  A    between atoms: _31  and  _32
REMARK   16  A    between atoms: _34  and  _36
REMARK   17  A    between atoms: _36  and  _37
REMARK   18  A    between atoms: _36  and  _39
REMARK   19  A    between atoms: _39  and  _40
REMARK   20  A    between atoms: _43  and  _45
REMARK   21  A    between atoms: _45  and  _46
REMARK   22  A    between atoms: _45  and  _48
REMARK   23  A    between atoms: _48  and  _49
REMARK   24  A    between atoms: _49  and  _50
REMARK   25  A    between atoms: _50  and  _51
REMARK   26  A    between atoms: _51  and  _52
REMARK   27  A    between atoms: _56  and  _58
REMARK   28  A    between atoms: _58  and  _59
REMARK   29  A    between atoms: _58  and  _61
REMARK   30  A    between atoms: _61  and  _62
REMARK   31  A    between atoms: _65  and  _67
REMARK   32  A    between atoms: _67  and  _68
REMARK   33  A    between atoms: _70  and  _72
REMARK   34  A    between atoms: _72  and  _73
REMARK   35  A    between atoms: _72  and  _75
REMARK   36  A    between atoms: _75  and  _76
REMARK   37  A    between atoms: _81  and  _82
REMARK   38  A    between atoms: _85  and  _86
REMARK   39  A    between atoms: _91  and  _93
REMARK   40  A    between atoms: _93  and  _94
REMARK   41  A    between atoms: _93  and  _96
REMARK   42  A    between atoms: _96  and  _97
REMARK   43  A    between atoms: _100  and  _102
REMARK   44  A    between atoms: _102  and  _103
REMARK   45  A    between atoms: _102  and  _105
REMARK   46  A    between atoms: _105  and  _106
REMARK   47  A    between atoms: _109  and  _111
REMARK   48  A    between atoms: _111  and  _112
REMARK   49  A    between atoms: _115  and  _117
REMARK   50  A    between atoms: _117  and  _118
REMARK   51  A    between atoms: _117  and  _120
REMARK   52  A    between atoms: _120  and  _121
REMARK   53  A    between atoms: _124  and  _126
REMARK   54  A    between atoms: _126  and  _127
REMARK   55  A    between atoms: _126  and  _129
REMARK   56  A    between atoms: _129  and  _130
REMARK   57  A    between atoms: _136  and  _138
REMARK   58  A    between atoms: _138  and  _139
REMARK   59  A    between atoms: _142  and  _144
REMARK   60  A    between atoms: _144  and  _145
REMARK   61  A    between atoms: _144  and  _147
REMARK   62  A    between atoms: _147  and  _148
REMARK   63  A    between atoms: _151  and  _153
REMARK   64  A    between atoms: _153  and  _154
REMARK   65  A    between atoms: _153  and  _156
REMARK   66  A    between atoms: _159  and  _161
REMARK   67  A    between atoms: _161  and  _162
REMARK   68  A    between atoms: _161  and  _164
REMARK   69  A    between atoms: _164  and  _165
REMARK   70  A    between atoms: _170  and  _172
REMARK   71  A    between atoms: _172  and  _173
REMARK   72  A    between atoms: _172  and  _175
REMARK   73  A    between atoms: _175  and  _176
REMARK   74  A    between atoms: _182  and  _184
REMARK   75  A    between atoms: _184  and  _185
REMARK   76  A    between atoms: _184  and  _187
REMARK   77  A    between atoms: _187  and  _188
REMARK   78  A    between atoms: _191  and  _193
REMARK   79  A    between atoms: _193  and  _194
REMARK   80  A    between atoms: _193  and  _196
REMARK   81  A    between atoms: _196  and  _197
REMARK   82  A    between atoms: _200  and  _202
REMARK   83  A    between atoms: _202  and  _203
REMARK   84  A    between atoms: _202  and  _205
REMARK   85  A    between atoms: _205  and  _206
REMARK   86  A    between atoms: _206  and  _207
REMARK   87  A    between atoms: _210  and  _212
REMARK   88  A    between atoms: _212  and  _213
REMARK   89  A    between atoms: _212  and  _215
REMARK   90  A    between atoms: _215  and  _216
REMARK   91  A    between atoms: _216  and  _217
REMARK   92  A    between atoms: _219  and  _221
REMARK   93  A    between atoms: _221  and  _222
REMARK   94  A    between atoms: _221  and  _224
REMARK   95  A    between atoms: _224  and  _225
REMARK   96  A    between atoms: _227  and  _229
REMARK   97  A    between atoms: _229  and  _230
REMARK   98  A    between atoms: _229  and  _232
REMARK   99  A    between atoms: _232  and  _233
REMARK  100  A    between atoms: _238  and  _240
REMARK  101  A    between atoms: _240  and  _241
REMARK  102  A    between atoms: _244  and  _246
REMARK  103  A    between atoms: _246  and  _247
REMARK  104  A    between atoms: _246  and  _249
REMARK  105  A    between atoms: _249  and  _250
REMARK  106  A    between atoms: _253  and  _255
REMARK  107  A    between atoms: _255  and  _256
REMARK  108  A    between atoms: _255  and  _258
REMARK  109  A    between atoms: _261  and  _263
REMARK  110  A    between atoms: _263  and  _264
REMARK  111  A    between atoms: _267  and  _268
REMARK  112  A    between atoms: _273  and  _275
REMARK  113  A    between atoms: _275  and  _276
REMARK  114  A    between atoms: _275  and  _278
REMARK  115  A    between atoms: _278  and  _279
REMARK  116  A    between atoms: _281  and  _283
REMARK  117  A    between atoms: _283  and  _284
REMARK  118  A    between atoms: _283  and  _286
REMARK  119  A    between atoms: _286  and  _287
REMARK  120  A    between atoms: _290  and  _292
REMARK  121  A    between atoms: _292  and  _293
REMARK  122  A    between atoms: _292  and  _295
REMARK  123  A    between atoms: _295  and  _296
REMARK  124  A    between atoms: _296  and  _297
REMARK  125  A    between atoms: _297  and  _298
REMARK  126  A    between atoms: _307  and  _309
REMARK  127  A    between atoms: _309  and  _310
REMARK  128  A    between atoms: _309  and  _312
REMARK  129  A    between atoms: _312  and  _313
REMARK  130  A    between atoms: _316  and  _318
REMARK  131  A    between atoms: _318  and  _319
REMARK  132  A    between atoms: _318  and  _321
REMARK  133  A    between atoms: _321  and  _322
REMARK  134  A    between atoms: _325  and  _326
REMARK  135  A    between atoms: _331  and  _333
REMARK  136  A    between atoms: _333  and  _334
REMARK  137  A    between atoms: _336  and  _338
REMARK  138  A    between atoms: _338  and  _339
REMARK  139  A    between atoms: _338  and  _341
REMARK  140  A    between atoms: _344  and  _346
REMARK  141  A    between atoms: _346  and  _347
REMARK  142  A    between atoms: _349  and  _351
REMARK  143  A    between atoms: _351  and  _352
REMARK  144  A    between atoms: _355  and  _357
REMARK  145  A    between atoms: _357  and  _358
REMARK  146  A    between atoms: _357  and  _360
REMARK  147  A    between atoms: _360  and  _361
REMARK  148  A    between atoms: _361  and  _362
REMARK  149  A    between atoms: _367  and  _369
REMARK  150  A    between atoms: _369  and  _370
REMARK  151  A    between atoms: _372  and  _374
REMARK  152  A    between atoms: _374  and  _375
REMARK  153  A    between atoms: _377  and  _379
REMARK  154  A    between atoms: _379  and  _380
REMARK  155  A    between atoms: _379  and  _382
REMARK  156  A    between atoms: _382  and  _383
REMARK  157  A    between atoms: _386  and  _388
REMARK  158  A    between atoms: _388  and  _389
REMARK  159  A    between atoms: _388  and  _391
REMARK  160  A    between atoms: _394  and  _396
REMARK  161  A    between atoms: _396  and  _397
REMARK  162  A    between atoms: _399  and  _401
REMARK  163  A    between atoms: _401  and  _402
REMARK  164  A    between atoms: _401  and  _404
REMARK  165  A    between atoms: _404  and  _405
REMARK  166  A    between atoms: _405  and  _406
REMARK  167  A    between atoms: _406  and  _407
REMARK  168  A    between atoms: _416  and  _418
REMARK  169  A    between atoms: _418  and  _419
REMARK  170  A    between atoms: _418  and  _421
REMARK  171  A    between atoms: _421  and  _422
REMARK  172  A    between atoms: _424  and  _426
REMARK  173  A    between atoms: _426  and  _427
REMARK  174  A    between atoms: _426  and  _429
REMARK  175  A    between atoms: _429  and  _430
REMARK  176  A    between atoms: _433  and  _435
REMARK  177  A    between atoms: _435  and  _436
REMARK  178  A    between atoms: _435  and  _438
REMARK  179  A    between atoms: _438  and  _439
REMARK  180  A    between atoms: _444  and  _445
REMARK  181  A    between atoms: _447  and  _449
REMARK  182  A    between atoms: _449  and  _450
REMARK  183  A    between atoms: _449  and  _452
REMARK  184  A    between atoms: _452  and  _453
REMARK  185  A    between atoms: _456  and  _458
REMARK  186  A    between atoms: _458  and  _459
REMARK  187  A    between atoms: _462  and  _464
REMARK  188  A    between atoms: _464  and  _465
REMARK  189  A    between atoms: _464  and  _467
REMARK  190  A    between atoms: _467  and  _468
REMARK  191  A    between atoms: _471  and  _473
REMARK  192  A    between atoms: _473  and  _474
REMARK  193  A    between atoms: _473  and  _476
REMARK  194  A    between atoms: _476  and  _477
REMARK  195  A    between atoms: _481  and  _482
REMARK  196  A    between atoms: _487  and  _489
REMARK  197  A    between atoms: _489  and  _490
REMARK  198  A    between atoms: _489  and  _492
REMARK  199  A    between atoms: _492  and  _493
REMARK  200  A    between atoms: _493  and  _494
REMARK  201  A    between atoms: _497  and  _499
REMARK  202  A    between atoms: _499  and  _500
REMARK  203  A    between atoms: _499  and  _502
REMARK  204  A    between atoms: _502  and  _503
REMARK  205  A    between atoms: _506  and  _508
REMARK  206  A    between atoms: _508  and  _509
REMARK  207  A    between atoms: _508  and  _511
REMARK  208  A    between atoms: _511  and  _512
REMARK  209  A    between atoms: _517  and  _519
REMARK  210  A    between atoms: _519  and  _520
REMARK  211  A    between atoms: _519  and  _522
REMARK  212  A    between atoms: _522  and  _523
REMARK  213  A    between atoms: _523  and  _524
REMARK  214  A    between atoms: _524  and  _525
REMARK  215  A    between atoms: _525  and  _526
REMARK  216  A    between atoms: _530  and  _532
REMARK  217  A    between atoms: _532  and  _533
REMARK  218  A    between atoms: _532  and  _535
REMARK  219  A    between atoms: _535  and  _536
REMARK                            x       y       z     vdW  Elec       q    Type
REMARK                         _______ _______ _______ _____ _____    ______ ____
ROOT
ATOM      1  O   HOH     1      17.108 -17.748  15.839  0.00  0.00    +0.000 OA
ENDROOT
TORSDOF 0
REMARK  Name = ../refined-set-2016/2zz2/2zz2_pocket.pdb
REMARK  219 active torsions:
REMARK  status: ('A' for Active; 'I' for Inactive)
REMARK    1  A    between atoms: _1  and  _3
REMARK    2  A    between atoms: _3  and  _4
REMARK    3  A    between atoms: _3  and  _6
REMARK    4  A    between atoms: _6  and  _7
REMARK    5  A    between atoms: _10  and  _12
REMARK    6  A    between atoms: _12  and  _13
REMARK    7  A    between atoms: _12  and  _15
REMARK    8  A    between atoms: _15  and  _16
REMARK    9  A    between atoms: _19  and  _21
REMARK   10  A    between atoms: _21  and  _22
REMARK   11  A    between atoms: _25  and  _27
REMARK   12  A    between atoms: _27  and  _28
REMARK   13  A    between atoms: _27  and  _30
REMARK   14  A    between atoms: _30  and  _31
REMARK   15  A    between atoms: _31  and  _32
REMARK   16  A    between atoms: _34  and  _36
REMARK   17  A    between atoms: _36  and  _37
REMARK   18  A    between atoms: _36  and  _39
REMARK   19  A    between atoms: _39  and  _40
REMARK   20  A    between atoms: _43  and  _45
REMARK   21  A    between atoms: _45  and  _46
REMARK   22  A    between atoms: _45  and  _48
REMARK   23  A    between atoms: _48  and  _49
REMARK   24  A    between atoms: _49  and  _50
REMARK   25  A    between atoms: _50  and  _51
REMARK   26  A    between atoms: _51  and  _52
REMARK   27  A    between atoms: _56  and  _58
REMARK   28  A    between atoms: _58  and  _59
REMARK   29  A    between atoms: _58  and  _61
REMARK   30  A    between atoms: _61  and  _62
REMARK   31  A    between atoms: _65  and  _67
REMARK   32  A    between atoms: _67  and  _68
REMARK   33  A    between atoms: _70  and  _72
REMARK   34  A    between atoms: _72  and  _73
REMARK   35  A    between atoms: _72  and  _75
REMARK   36  A    between atoms: _75  and  _76
REMARK   37  A    between atoms: _81  and  _82
REMARK   38  A    between atoms: _85  and  _86
REMARK   39  A    between atoms: _91  and  _93
REMARK   40  A    between atoms: _93  and  _94
REMARK   41  A    between atoms: _93  and  _96
REMARK   42  A    between atoms: _96  and  _97
REMARK   43  A    between atoms: _100  and  _102
REMARK   44  A    between atoms: _102  and  _103
REMARK   45  A    between atoms: _102  and  _105
REMARK   46  A    between atoms: _105  and  _106
REMARK   47  A    between atoms: _109  and  _111
REMARK   48  A    between atoms: _111  and  _112
REMARK   49  A    between atoms: _115  and  _117
REMARK   50  A    between atoms: _117  and  _118
REMARK   51  A    between atoms: _117  and  _120
REMARK   52  A    between atoms: _120  and  _121
REMARK   53  A    between atoms: _124  and  _126
REMARK   54  A    between atoms: _126  and  _127
REMARK   55  A    between atoms: _126  and  _129
REMARK   56  A    between atoms: _129  and  _130
REMARK   57  A    between atoms: _136  and  _138
REMARK   58  A    between atoms: _138  and  _139
REMARK   59  A    between atoms: _142  and  _144
REMARK   60  A    between atoms: _144  and  _145
REMARK   61  A    between atoms: _144  and  _147
REMARK   62  A    between atoms: _147  and  _148
REMARK   63  A    between atoms: _151  and  _153
REMARK   64  A    between atoms: _153  and  _154
REMARK   65  A    between atoms: _153  and  _156
REMARK   66  A    between atoms: _159  and  _161
REMARK   67  A    between atoms: _161  and  _162
REMARK   68  A    between atoms: _161  and  _164
REMARK   69  A    between atoms: _164  and  _165
REMARK   70  A    between atoms: _170  and  _172
REMARK   71  A    between atoms: _172  and  _173
REMARK   72  A    between atoms: _172  and  _175
REMARK   73  A    between atoms: _175  and  _176
REMARK   74  A    between atoms: _182  and  _184
REMARK   75  A    between atoms: _184  and  _185
REMARK   76  A    between atoms: _184  and  _187
REMARK   77  A    between atoms: _187  and  _188
REMARK   78  A    between atoms: _191  and  _193
REMARK   79  A    between atoms: _193  and  _194
REMARK   80  A    between atoms: _193  and  _196
REMARK   81  A    between atoms: _196  and  _197
REMARK   82  A    between atoms: _200  and  _202
REMARK   83  A    between atoms: _202  and  _203
REMARK   84  A    between atoms: _202  and  _205
REMARK   85  A    between atoms: _205  and  _206
REMARK   86  A    between atoms: _206  and  _207
REMARK   87  A    between atoms: _210  and  _212
REMARK   88  A    between atoms: _212  and  _213
REMARK   89  A    between atoms: _212  and  _215
REMARK   90  A    between atoms: _215  and  _216
REMARK   91  A    between atoms: _216  and  _217
REMARK   92  A    between atoms: _219  and  _221
REMARK   93  A    between atoms: _221  and  _222
REMARK   94  A    between atoms: _221  and  _224
REMARK   95  A    between atoms: _224  and  _225
REMARK   96  A    between atoms: _227  and  _229
REMARK   97  A    between atoms: _229  and  _230
REMARK   98  A    between atoms: _229  and  _232
REMARK   99  A    between atoms: _232  and  _233
REMARK  100  A    between atoms: _238  and  _240
REMARK  101  A    between atoms: _240  and  _241
REMARK  102  A    between atoms: _244  and  _246
REMARK  103  A    between atoms: _246  and  _247
REMARK  104  A    between atoms: _246  and  _249
REMARK  105  A    between atoms: _249  and  _250
REMARK  106  A    between atoms: _253  and  _255
REMARK  107  A    between atoms: _255  and  _256
REMARK  108  A    between atoms: _255  and  _258
REMARK  109  A    between atoms: _261  and  _263
REMARK  110  A    between atoms: _263  and  _264
REMARK  111  A    between atoms: _267  and  _268
REMARK  112  A    between atoms: _273  and  _275
REMARK  113  A    between atoms: _275  and  _276
REMARK  114  A    between atoms: _275  and  _278
REMARK  115  A    between atoms: _278  and  _279
REMARK  116  A    between atoms: _281  and  _283
REMARK  117  A    between atoms: _283  and  _284
REMARK  118  A    between atoms: _283  and  _286
REMARK  119  A    between atoms: _286  and  _287
REMARK  120  A    between atoms: _290  and  _292
REMARK  121  A    between atoms: _292  and  _293
REMARK  122  A    between atoms: _292  and  _295
REMARK  123  A    between atoms: _295  and  _296
REMARK  124  A    between atoms: _296  and  _297
REMARK  125  A    between atoms: _297  and  _298
REMARK  126  A    between atoms: _307  and  _309
REMARK  127  A    between atoms: _309  and  _310
REMARK  128  A    between atoms: _309  and  _312
REMARK  129  A    between atoms: _312  and  _313
REMARK  130  A    between atoms: _316  and  _318
REMARK  131  A    between atoms: _318  and  _319
REMARK  132  A    between atoms: _318  and  _321
REMARK  133  A    between atoms: _321  and  _322
REMARK  134  A    between atoms: _325  and  _326
REMARK  135  A    between atoms: _331  and  _333
REMARK  136  A    between atoms: _333  and  _334
REMARK  137  A    between atoms: _336  and  _338
REMARK  138  A    between atoms: _338  and  _339
REMARK  139  A    between atoms: _338  and  _341
REMARK  140  A    between atoms: _344  and  _346
REMARK  141  A    between atoms: _346  and  _347
REMARK  142  A    between atoms: _349  and  _351
REMARK  143  A    between atoms: _351  and  _352
REMARK  144  A    between atoms: _355  and  _357
REMARK  145  A    between atoms: _357  and  _358
REMARK  146  A    between atoms: _357  and  _360
REMARK  147  A    between atoms: _360  and  _361
REMARK  148  A    between atoms: _361  and  _362
REMARK  149  A    between atoms: _367  and  _369
REMARK  150  A    between atoms: _369  and  _370
REMARK  151  A    between atoms: _372  and  _374
REMARK  152  A    between atoms: _374  and  _375
REMARK  153  A    between atoms: _377  and  _379
REMARK  154  A    between atoms: _379  and  _380
REMARK  155  A    between atoms: _379  and  _382
REMARK  156  A    between atoms: _382  and  _383
REMARK  157  A    between atoms: _386  and  _388
REMARK  158  A    between atoms: _388  and  _389
REMARK  159  A    between atoms: _388  and  _391
REMARK  160  A    between atoms: _394  and  _396
REMARK  161  A    between atoms: _396  and  _397
REMARK  162  A    between atoms: _399  and  _401
REMARK  163  A    between atoms: _401  and  _402
REMARK  164  A    between atoms: _401  and  _404
REMARK  165  A    between atoms: _404  and  _405
REMARK  166  A    between atoms: _405  and  _406
REMARK  167  A    between atoms: _406  and  _407
REMARK  168  A    between atoms: _416  and  _418
REMARK  169  A    between atoms: _418  and  _419
REMARK  170  A    between atoms: _418  and  _421
REMARK  171  A    between atoms: _421  and  _422
REMARK  172  A    between atoms: _424  and  _426
REMARK  173  A    between atoms: _426  and  _427
REMARK  174  A    between atoms: _426  and  _429
REMARK  175  A    between atoms: _429  and  _430
REMARK  176  A    between atoms: _433  and  _435
REMARK  177  A    between atoms: _435  and  _436
REMARK  178  A    between atoms: _435  and  _438
REMARK  179  A    between atoms: _438  and  _439
REMARK  180  A    between atoms: _444  and  _445
REMARK  181  A    between atoms: _447  and  _449
REMARK  182  A    between atoms: _449  and  _450
REMARK  183  A    between atoms: _449  and  _452
REMARK  184  A    between atoms: _452  and  _453
REMARK  185  A    between atoms: _456  and  _458
REMARK  186  A    between atoms: _458  and  _459
REMARK  187  A    between atoms: _462  and  _464
REMARK  188  A    between atoms: _464  and  _465
REMARK  189  A    between atoms: _464  and  _467
REMARK  190  A    between atoms: _467  and  _468
REMARK  191  A    between atoms: _471  and  _473
REMARK  192  A    between atoms: _473  and  _474
REMARK  193  A    between atoms: _473  and  _476
REMARK  194  A    between atoms: _476  and  _477
REMARK  195  A    between atoms: _481  and  _482
REMARK  196  A    between atoms: _487  and  _489
REMARK  197  A    between atoms: _489  and  _490
REMARK  198  A    between atoms: _489  and  _492
REMARK  199  A    between atoms: _492  and  _493
REMARK  200  A    between atoms: _493  and  _494
REMARK  201  A    between atoms: _497  and  _499
REMARK  202  A    between atoms: _499  and  _500
REMARK  203  A    between atoms: _499  and  _502
REMARK  204  A    between atoms: _502  and  _503
REMARK  205  A    between atoms: _506  and  _508
REMARK  206  A    between atoms: _508  and  _509
REMARK  207  A    between atoms: _508  and  _511
REMARK  208  A    between atoms: _511  and  _512
REMARK  209  A    between atoms: _517  and  _519
REMARK  210  A    between atoms: _519  and  _520
REMARK  211  A    between atoms: _519  and  _522
REMARK  212  A    between atoms: _522  and  _523
REMARK  213  A    between atoms: _523  and  _524
REMARK  214  A    between atoms: _524  and  _525
REMARK  215  A    between atoms: _525  and  _526
REMARK  216  A    between atoms: _530  and  _532
REMARK  217  A    between atoms: _532  and  _533
REMARK  218  A    between atoms: _532  and  _535
REMARK  219  A    between atoms: _535  and  _536
REMARK                            x       y       z     vdW  Elec       q    Type
REMARK                         _______ _______ _______ _____ _____    ______ ____
ROOT
ATOM      1  O   HOH     1      32.360 -21.197  13.918  0.00  0.00    +0.000 OA
ENDROOT
TORSDOF 0
REMARK  Name = ../refined-set-2016/2zz2/2zz2_pocket.pdb
REMARK  219 active torsions:
REMARK  status: ('A' for Active; 'I' for Inactive)
REMARK    1  A    between atoms: _1  and  _3
REMARK    2  A    between atoms: _3  and  _4
REMARK    3  A    between atoms: _3  and  _6
REMARK    4  A    between atoms: _6  and  _7
REMARK    5  A    between atoms: _10  and  _12
REMARK    6  A    between atoms: _12  and  _13
REMARK    7  A    between atoms: _12  and  _15
REMARK    8  A    between atoms: _15  and  _16
REMARK    9  A    between atoms: _19  and  _21
REMARK   10  A    between atoms: _21  and  _22
REMARK   11  A    between atoms: _25  and  _27
REMARK   12  A    between atoms: _27  and  _28
REMARK   13  A    between atoms: _27  and  _30
REMARK   14  A    between atoms: _30  and  _31
REMARK   15  A    between atoms: _31  and  _32
REMARK   16  A    between atoms: _34  and  _36
REMARK   17  A    between atoms: _36  and  _37
REMARK   18  A    between atoms: _36  and  _39
REMARK   19  A    between atoms: _39  and  _40
REMARK   20  A    between atoms: _43  and  _45
REMARK   21  A    between atoms: _45  and  _46
REMARK   22  A    between atoms: _45  and  _48
REMARK   23  A    between atoms: _48  and  _49
REMARK   24  A    between atoms: _49  and  _50
REMARK   25  A    between atoms: _50  and  _51
REMARK   26  A    between atoms: _51  and  _52
REMARK   27  A    between atoms: _56  and  _58
REMARK   28  A    between atoms: _58  and  _59
REMARK   29  A    between atoms: _58  and  _61
REMARK   30  A    between atoms: _61  and  _62
REMARK   31  A    between atoms: _65  and  _67
REMARK   32  A    between atoms: _67  and  _68
REMARK   33  A    between atoms: _70  and  _72
REMARK   34  A    between atoms: _72  and  _73
REMARK   35  A    between atoms: _72  and  _75
REMARK   36  A    between atoms: _75  and  _76
REMARK   37  A    between atoms: _81  and  _82
REMARK   38  A    between atoms: _85  and  _86
REMARK   39  A    between atoms: _91  and  _93
REMARK   40  A    between atoms: _93  and  _94
REMARK   41  A    between atoms: _93  and  _96
REMARK   42  A    between atoms: _96  and  _97
REMARK   43  A    between atoms: _100  and  _102
REMARK   44  A    between atoms: _102  and  _103
REMARK   45  A    between atoms: _102  and  _105
REMARK   46  A    between atoms: _105  and  _106
REMARK   47  A    between atoms: _109  and  _111
REMARK   48  A    between atoms: _111  and  _112
REMARK   49  A    between atoms: _115  and  _117
REMARK   50  A    between atoms: _117  and  _118
REMARK   51  A    between atoms: _117  and  _120
REMARK   52  A    between atoms: _120  and  _121
REMARK   53  A    between atoms: _124  and  _126
REMARK   54  A    between atoms: _126  and  _127
REMARK   55  A    between atoms: _126  and  _129
REMARK   56  A    between atoms: _129  and  _130
REMARK   57  A    between atoms: _136  and  _138
REMARK   58  A    between atoms: _138  and  _139
REMARK   59  A    between atoms: _142  and  _144
REMARK   60  A    between atoms: _144  and  _145
REMARK   61  A    between atoms: _144  and  _147
REMARK   62  A    between atoms: _147  and  _148
REMARK   63  A    between atoms: _151  and  _153
REMARK   64  A    between atoms: _153  and  _154
REMARK   65  A    between atoms: _153  and  _156
REMARK   66  A    between atoms: _159  and  _161
REMARK   67  A    between atoms: _161  and  _162
REMARK   68  A    between atoms: _161  and  _164
REMARK   69  A    between atoms: _164  and  _165
REMARK   70  A    between atoms: _170  and  _172
REMARK   71  A    between atoms: _172  and  _173
REMARK   72  A    between atoms: _172  and  _175
REMARK   73  A    between atoms: _175  and  _176
REMARK   74  A    between atoms: _182  and  _184
REMARK   75  A    between atoms: _184  and  _185
REMARK   76  A    between atoms: _184  and  _187
REMARK   77  A    between atoms: _187  and  _188
REMARK   78  A    between atoms: _191  and  _193
REMARK   79  A    between atoms: _193  and  _194
REMARK   80  A    between atoms: _193  and  _196
REMARK   81  A    between atoms: _196  and  _197
REMARK   82  A    between atoms: _200  and  _202
REMARK   83  A    between atoms: _202  and  _203
REMARK   84  A    between atoms: _202  and  _205
REMARK   85  A    between atoms: _205  and  _206
REMARK   86  A    between atoms: _206  and  _207
REMARK   87  A    between atoms: _210  and  _212
REMARK   88  A    between atoms: _212  and  _213
REMARK   89  A    between atoms: _212  and  _215
REMARK   90  A    between atoms: _215  and  _216
REMARK   91  A    between atoms: _216  and  _217
REMARK   92  A    between atoms: _219  and  _221
REMARK   93  A    between atoms: _221  and  _222
REMARK   94  A    between atoms: _221  and  _224
REMARK   95  A    between atoms: _224  and  _225
REMARK   96  A    between atoms: _227  and  _229
REMARK   97  A    between atoms: _229  and  _230
REMARK   98  A    between atoms: _229  and  _232
REMARK   99  A    between atoms: _232  and  _233
REMARK  100  A    between atoms: _238  and  _240
REMARK  101  A    between atoms: _240  and  _241
REMARK  102  A    between atoms: _244  and  _246
REMARK  103  A    between atoms: _246  and  _247
REMARK  104  A    between atoms: _246  and  _249
REMARK  105  A    between atoms: _249  and  _250
REMARK  106  A    between atoms: _253  and  _255
REMARK  107  A    between atoms: _255  and  _256
REMARK  108  A    between atoms: _255  and  _258
REMARK  109  A    between atoms: _261  and  _263
REMARK  110  A    between atoms: _263  and  _264
REMARK  111  A    between atoms: _267  and  _268
REMARK  112  A    between atoms: _273  and  _275
REMARK  113  A    between atoms: _275  and  _276
REMARK  114  A    between atoms: _275  and  _278
REMARK  115  A    between atoms: _278  and  _279
REMARK  116  A    between atoms: _281  and  _283
REMARK  117  A    between atoms: _283  and  _284
REMARK  118  A    between atoms: _283  and  _286
REMARK  119  A    between atoms: _286  and  _287
REMARK  120  A    between atoms: _290  and  _292
REMARK  121  A    between atoms: _292  and  _293
REMARK  122  A    between atoms: _292  and  _295
REMARK  123  A    between atoms: _295  and  _296
REMARK  124  A    between atoms: _296  and  _297
REMARK  125  A    between atoms: _297  and  _298
REMARK  126  A    between atoms: _307  and  _309
REMARK  127  A    between atoms: _309  and  _310
REMARK  128  A    between atoms: _309  and  _312
REMARK  129  A    between atoms: _312  and  _313
REMARK  130  A    between atoms: _316  and  _318
REMARK  131  A    between atoms: _318  and  _319
REMARK  132  A    between atoms: _318  and  _321
REMARK  133  A    between atoms: _321  and  _322
REMARK  134  A    between atoms: _325  and  _326
REMARK  135  A    between atoms: _331  and  _333
REMARK  136  A    between atoms: _333  and  _334
REMARK  137  A    between atoms: _336  and  _338
REMARK  138  A    between atoms: _338  and  _339
REMARK  139  A    between atoms: _338  and  _341
REMARK  140  A    between atoms: _344  and  _346
REMARK  141  A    between atoms: _346  and  _347
REMARK  142  A    between atoms: _349  and  _351
REMARK  143  A    between atoms: _351  and  _352
REMARK  144  A    between atoms: _355  and  _357
REMARK  145  A    between atoms: _357  and  _358
REMARK  146  A    between atoms: _357  and  _360
REMARK  147  A    between atoms: _360  and  _361
REMARK  148  A    between atoms: _361  and  _362
REMARK  149  A    between atoms: _367  and  _369
REMARK  150  A    between atoms: _369  and  _370
REMARK  151  A    between atoms: _372  and  _374
REMARK  152  A    between atoms: _374  and  _375
REMARK  153  A    between atoms: _377  and  _379
REMARK  154  A    between atoms: _379  and  _380
REMARK  155  A    between atoms: _379  and  _382
REMARK  156  A    between atoms: _382  and  _383
REMARK  157  A    between atoms: _386  and  _388
REMARK  158  A    between atoms: _388  and  _389
REMARK  159  A    between atoms: _388  and  _391
REMARK  160  A    between atoms: _394  and  _396
REMARK  161  A    between atoms: _396  and  _397
REMARK  162  A    between atoms: _399  and  _401
REMARK  163  A    between atoms: _401  and  _402
REMARK  164  A    between atoms: _401  and  _404
REMARK  165  A    between atoms: _404  and  _405
REMARK  166  A    between atoms: _405  and  _406
REMARK  167  A    between atoms: _406  and  _407
REMARK  168  A    between atoms: _416  and  _418
REMARK  169  A    between atoms: _418  and  _419
REMARK  170  A    between atoms: _418  and  _421
REMARK  171  A    between atoms: _421  and  _422
REMARK  172  A    between atoms: _424  and  _426
REMARK  173  A    between atoms: _426  and  _427
REMARK  174  A    between atoms: _426  and  _429
REMARK  175  A    between atoms: _429  and  _430
REMARK  176  A    between atoms: _433  and  _435
REMARK  177  A    between atoms: _435  and  _436
REMARK  178  A    between atoms: _435  and  _438
REMARK  179  A    between atoms: _438  and  _439
REMARK  180  A    between atoms: _444  and  _445
REMARK  181  A    between atoms: _447  and  _449
REMARK  182  A    between atoms: _449  and  _450
REMARK  183  A    between atoms: _449  and  _452
REMARK  184  A    between atoms: _452  and  _453
REMARK  185  A    between atoms: _456  and  _458
REMARK  186  A    between atoms: _458  and  _459
REMARK  187  A    between atoms: _462  and  _464
REMARK  188  A    between atoms: _464  and  _465
REMARK  189  A    between atoms: _464  and  _467
REMARK  190  A    between atoms: _467  and  _468
REMARK  191  A    between atoms: _471  and  _473
REMARK  192  A    between atoms: _473  and  _474
REMARK  193  A    between atoms: _473  and  _476
REMARK  194  A    between atoms: _476  and  _477
REMARK  195  A    between atoms: _481  and  _482
REMARK  196  A    between atoms: _487  and  _489
REMARK  197  A    between atoms: _489  and  _490
REMARK  198  A    between atoms: _489  and  _492
REMARK  199  A    between atoms: _492  and  _493
REMARK  200  A    between atoms: _493  and  _494
REMARK  201  A    between atoms: _497  and  _499
REMARK  202  A    between atoms: _499  and  _500
REMARK  203  A    between atoms: _499  and  _502
REMARK  204  A    between atoms: _502  and  _503
REMARK  205  A    between atoms: _506  and  _508
REMARK  206  A    between atoms: _508  and  _509
REMARK  207  A    between atoms: _508  and  _511
REMARK  208  A    between atoms: _511  and  _512
REMARK  209  A    between atoms: _517  and  _519
REMARK  210  A    between atoms: _519  and  _520
REMARK  211  A    between atoms: _519  and  _522
REMARK  212  A    between atoms: _522  and  _523
REMARK  213  A    between atoms: _523  and  _524
REMARK  214  A    between atoms: _524  and  _525
REMARK  215  A    between atoms: _525  and  _526
REMARK  216  A    between atoms: _530  and  _532
REMARK  217  A    between atoms: _532  and  _533
REMARK  218  A    between atoms: _532  and  _535
REMARK  219  A    between atoms: _535  and  _536
REMARK                            x       y       z     vdW  Elec       q    Type
REMARK                         _______ _______ _______ _____ _____    ______ ____
ROOT
ATOM      1  O   HOH     1      26.450 -19.098   8.135  0.00  0.00    +0.000 OA
ENDROOT
TORSDOF 0
REMARK  Name = ../refined-set-2016/2zz2/2zz2_pocket.pdb
REMARK  219 active torsions:
REMARK  status: ('A' for Active; 'I' for Inactive)
REMARK    1  A    between atoms: _1  and  _3
REMARK    2  A    between atoms: _3  and  _4
REMARK    3  A    between atoms: _3  and  _6
REMARK    4  A    between atoms: _6  and  _7
REMARK    5  A    between atoms: _10  and  _12
REMARK    6  A    between atoms: _12  and  _13
REMARK    7  A    between atoms: _12  and  _15
REMARK    8  A    between atoms: _15  and  _16
REMARK    9  A    between atoms: _19  and  _21
REMARK   10  A    between atoms: _21  and  _22
REMARK   11  A    between atoms: _25  and  _27
REMARK   12  A    between atoms: _27  and  _28
REMARK   13  A    between atoms: _27  and  _30
REMARK   14  A    between atoms: _30  and  _31
REMARK   15  A    between atoms: _31  and  _32
REMARK   16  A    between atoms: _34  and  _36
REMARK   17  A    between atoms: _36  and  _37
REMARK   18  A    between atoms: _36  and  _39
REMARK   19  A    between atoms: _39  and  _40
REMARK   20  A    between atoms: _43  and  _45
REMARK   21  A    between atoms: _45  and  _46
REMARK   22  A    between atoms: _45  and  _48
REMARK   23  A    between atoms: _48  and  _49
REMARK   24  A    between atoms: _49  and  _50
REMARK   25  A    between atoms: _50  and  _51
REMARK   26  A    between atoms: _51  and  _52
REMARK   27  A    between atoms: _56  and  _58
REMARK   28  A    between atoms: _58  and  _59
REMARK   29  A    between atoms: _58  and  _61
REMARK   30  A    between atoms: _61  and  _62
REMARK   31  A    between atoms: _65  and  _67
REMARK   32  A    between atoms: _67  and  _68
REMARK   33  A    between atoms: _70  and  _72
REMARK   34  A    between atoms: _72  and  _73
REMARK   35  A    between atoms: _72  and  _75
REMARK   36  A    between atoms: _75  and  _76
REMARK   37  A    between atoms: _81  and  _82
REMARK   38  A    between atoms: _85  and  _86
REMARK   39  A    between atoms: _91  and  _93
REMARK   40  A    between atoms: _93  and  _94
REMARK   41  A    between atoms: _93  and  _96
REMARK   42  A    between atoms: _96  and  _97
REMARK   43  A    between atoms: _100  and  _102
REMARK   44  A    between atoms: _102  and  _103
REMARK   45  A    between atoms: _102  and  _105
REMARK   46  A    between atoms: _105  and  _106
REMARK   47  A    between atoms: _109  and  _111
REMARK   48  A    between atoms: _111  and  _112
REMARK   49  A    between atoms: _115  and  _117
REMARK   50  A    between atoms: _117  and  _118
REMARK   51  A    between atoms: _117  and  _120
REMARK   52  A    between atoms: _120  and  _121
REMARK   53  A    between atoms: _124  and  _126
REMARK   54  A    between atoms: _126  and  _127
REMARK   55  A    between atoms: _126  and  _129
REMARK   56  A    between atoms: _129  and  _130
REMARK   57  A    between atoms: _136  and  _138
REMARK   58  A    between atoms: _138  and  _139
REMARK   59  A    between atoms: _142  and  _144
REMARK   60  A    between atoms: _144  and  _145
REMARK   61  A    between atoms: _144  and  _147
REMARK   62  A    between atoms: _147  and  _148
REMARK   63  A    between atoms: _151  and  _153
REMARK   64  A    between atoms: _153  and  _154
REMARK   65  A    between atoms: _153  and  _156
REMARK   66  A    between atoms: _159  and  _161
REMARK   67  A    between atoms: _161  and  _162
REMARK   68  A    between atoms: _161  and  _164
REMARK   69  A    between atoms: _164  and  _165
REMARK   70  A    between atoms: _170  and  _172
REMARK   71  A    between atoms: _172  and  _173
REMARK   72  A    between atoms: _172  and  _175
REMARK   73  A    between atoms: _175  and  _176
REMARK   74  A    between atoms: _182  and  _184
REMARK   75  A    between atoms: _184  and  _185
REMARK   76  A    between atoms: _184  and  _187
REMARK   77  A    between atoms: _187  and  _188
REMARK   78  A    between atoms: _191  and  _193
REMARK   79  A    between atoms: _193  and  _194
REMARK   80  A    between atoms: _193  and  _196
REMARK   81  A    between atoms: _196  and  _197
REMARK   82  A    between atoms: _200  and  _202
REMARK   83  A    between atoms: _202  and  _203
REMARK   84  A    between atoms: _202  and  _205
REMARK   85  A    between atoms: _205  and  _206
REMARK   86  A    between atoms: _206  and  _207
REMARK   87  A    between atoms: _210  and  _212
REMARK   88  A    between atoms: _212  and  _213
REMARK   89  A    between atoms: _212  and  _215
REMARK   90  A    between atoms: _215  and  _216
REMARK   91  A    between atoms: _216  and  _217
REMARK   92  A    between atoms: _219  and  _221
REMARK   93  A    between atoms: _221  and  _222
REMARK   94  A    between atoms: _221  and  _224
REMARK   95  A    between atoms: _224  and  _225
REMARK   96  A    between atoms: _227  and  _229
REMARK   97  A    between atoms: _229  and  _230
REMARK   98  A    between atoms: _229  and  _232
REMARK   99  A    between atoms: _232  and  _233
REMARK  100  A    between atoms: _238  and  _240
REMARK  101  A    between atoms: _240  and  _241
REMARK  102  A    between atoms: _244  and  _246
REMARK  103  A    between atoms: _246  and  _247
REMARK  104  A    between atoms: _246  and  _249
REMARK  105  A    between atoms: _249  and  _250
REMARK  106  A    between atoms: _253  and  _255
REMARK  107  A    between atoms: _255  and  _256
REMARK  108  A    between atoms: _255  and  _258
REMARK  109  A    between atoms: _261  and  _263
REMARK  110  A    between atoms: _263  and  _264
REMARK  111  A    between atoms: _267  and  _268
REMARK  112  A    between atoms: _273  and  _275
REMARK  113  A    between atoms: _275  and  _276
REMARK  114  A    between atoms: _275  and  _278
REMARK  115  A    between atoms: _278  and  _279
REMARK  116  A    between atoms: _281  and  _283
REMARK  117  A    between atoms: _283  and  _284
REMARK  118  A    between atoms: _283  and  _286
REMARK  119  A    between atoms: _286  and  _287
REMARK  120  A    between atoms: _290  and  _292
REMARK  121  A    between atoms: _292  and  _293
REMARK  122  A    between atoms: _292  and  _295
REMARK  123  A    between atoms: _295  and  _296
REMARK  124  A    between atoms: _296  and  _297
REMARK  125  A    between atoms: _297  and  _298
REMARK  126  A    between atoms: _307  and  _309
REMARK  127  A    between atoms: _309  and  _310
REMARK  128  A    between atoms: _309  and  _312
REMARK  129  A    between atoms: _312  and  _313
REMARK  130  A    between atoms: _316  and  _318
REMARK  131  A    between atoms: _318  and  _319
REMARK  132  A    between atoms: _318  and  _321
REMARK  133  A    between atoms: _321  and  _322
REMARK  134  A    between atoms: _325  and  _326
REMARK  135  A    between atoms: _331  and  _333
REMARK  136  A    between atoms: _333  and  _334
REMARK  137  A    between atoms: _336  and  _338
REMARK  138  A    between atoms: _338  and  _339
REMARK  139  A    between atoms: _338  and  _341
REMARK  140  A    between atoms: _344  and  _346
REMARK  141  A    between atoms: _346  and  _347
REMARK  142  A    between atoms: _349  and  _351
REMARK  143  A    between atoms: _351  and  _352
REMARK  144  A    between atoms: _355  and  _357
REMARK  145  A    between atoms: _357  and  _358
REMARK  146  A    between atoms: _357  and  _360
REMARK  147  A    between atoms: _360  and  _361
REMARK  148  A    between atoms: _361  and  _362
REMARK  149  A    between atoms: _367  and  _369
REMARK  150  A    between atoms: _369  and  _370
REMARK  151  A    between atoms: _372  and  _374
REMARK  152  A    between atoms: _374  and  _375
REMARK  153  A    between atoms: _377  and  _379
REMARK  154  A    between atoms: _379  and  _380
REMARK  155  A    between atoms: _379  and  _382
REMARK  156  A    between atoms: _382  and  _383
REMARK  157  A    between atoms: _386  and  _388
REMARK  158  A    between atoms: _388  and  _389
REMARK  159  A    between atoms: _388  and  _391
REMARK  160  A    between atoms: _394  and  _396
REMARK  161  A    between atoms: _396  and  _397
REMARK  162  A    between atoms: _399  and  _401
REMARK  163  A    between atoms: _401  and  _402
REMARK  164  A    between atoms: _401  and  _404
REMARK  165  A    between atoms: _404  and  _405
REMARK  166  A    between atoms: _405  and  _406
REMARK  167  A    between atoms: _406  and  _407
REMARK  168  A    between atoms: _416  and  _418
REMARK  169  A    between atoms: _418  and  _419
REMARK  170  A    between atoms: _418  and  _421
REMARK  171  A    between atoms: _421  and  _422
REMARK  172  A    between atoms: _424  and  _426
REMARK  173  A    between atoms: _426  and  _427
REMARK  174  A    between atoms: _426  and  _429
REMARK  175  A    between atoms: _429  and  _430
REMARK  176  A    between atoms: _433  and  _435
REMARK  177  A    between atoms: _435  and  _436
REMARK  178  A    between atoms: _435  and  _438
REMARK  179  A    between atoms: _438  and  _439
REMARK  180  A    between atoms: _444  and  _445
REMARK  181  A    between atoms: _447  and  _449
REMARK  182  A    between atoms: _449  and  _450
REMARK  183  A    between atoms: _449  and  _452
REMARK  184  A    between atoms: _452  and  _453
REMARK  185  A    between atoms: _456  and  _458
REMARK  186  A    between atoms: _458  and  _459
REMARK  187  A    between atoms: _462  and  _464
REMARK  188  A    between atoms: _464  and  _465
REMARK  189  A    between atoms: _464  and  _467
REMARK  190  A    between atoms: _467  and  _468
REMARK  191  A    between atoms: _471  and  _473
REMARK  192  A    between atoms: _473  and  _474
REMARK  193  A    between atoms: _473  and  _476
REMARK  194  A    between atoms: _476  and  _477
REMARK  195  A    between atoms: _481  and  _482
REMARK  196  A    between atoms: _487  and  _489
REMARK  197  A    between atoms: _489  and  _490
REMARK  198  A    between atoms: _489  and  _492
REMARK  199  A    between atoms: _492  and  _493
REMARK  200  A    between atoms: _493  and  _494
REMARK  201  A    between atoms: _497  and  _499
REMARK  202  A    between atoms: _499  and  _500
REMARK  203  A    between atoms: _499  and  _502
REMARK  204  A    between atoms: _502  and  _503
REMARK  205  A    between atoms: _506  and  _508
REMARK  206  A    between atoms: _508  and  _509
REMARK  207  A    between atoms: _508  and  _511
REMARK  208  A    between atoms: _511  and  _512
REMARK  209  A    between atoms: _517  and  _519
REMARK  210  A    between atoms: _519  and  _520
REMARK  211  A    between atoms: _519  and  _522
REMARK  212  A    between atoms: _522  and  _523
REMARK  213  A    between atoms: _523  and  _524
REMARK  214  A    between atoms: _524  and  _525
REMARK  215  A    between atoms: _525  and  _526
REMARK  216  A    between atoms: _530  and  _532
REMARK  217  A    between atoms: _532  and  _533
REMARK  218  A    between atoms: _532  and  _535
REMARK  219  A    between atoms: _535  and  _536
REMARK                            x       y       z     vdW  Elec       q    Type
REMARK                         _______ _______ _______ _____ _____    ______ ____
ROOT
ATOM      1  O   HOH     1      21.644 -14.929  10.938  0.00  0.00    +0.000 OA
ENDROOT
TORSDOF 0
REMARK  Name = ../refined-set-2016/2zz2/2zz2_pocket.pdb
REMARK  219 active torsions:
REMARK  status: ('A' for Active; 'I' for Inactive)
REMARK    1  A    between atoms: _1  and  _3
REMARK    2  A    between atoms: _3  and  _4
REMARK    3  A    between atoms: _3  and  _6
REMARK    4  A    between atoms: _6  and  _7
REMARK    5  A    between atoms: _10  and  _12
REMARK    6  A    between atoms: _12  and  _13
REMARK    7  A    between atoms: _12  and  _15
REMARK    8  A    between atoms: _15  and  _16
REMARK    9  A    between atoms: _19  and  _21
REMARK   10  A    between atoms: _21  and  _22
REMARK   11  A    between atoms: _25  and  _27
REMARK   12  A    between atoms: _27  and  _28
REMARK   13  A    between atoms: _27  and  _30
REMARK   14  A    between atoms: _30  and  _31
REMARK   15  A    between atoms: _31  and  _32
REMARK   16  A    between atoms: _34  and  _36
REMARK   17  A    between atoms: _36  and  _37
REMARK   18  A    between atoms: _36  and  _39
REMARK   19  A    between atoms: _39  and  _40
REMARK   20  A    between atoms: _43  and  _45
REMARK   21  A    between atoms: _45  and  _46
REMARK   22  A    between atoms: _45  and  _48
REMARK   23  A    between atoms: _48  and  _49
REMARK   24  A    between atoms: _49  and  _50
REMARK   25  A    between atoms: _50  and  _51
REMARK   26  A    between atoms: _51  and  _52
REMARK   27  A    between atoms: _56  and  _58
REMARK   28  A    between atoms: _58  and  _59
REMARK   29  A    between atoms: _58  and  _61
REMARK   30  A    between atoms: _61  and  _62
REMARK   31  A    between atoms: _65  and  _67
REMARK   32  A    between atoms: _67  and  _68
REMARK   33  A    between atoms: _70  and  _72
REMARK   34  A    between atoms: _72  and  _73
REMARK   35  A    between atoms: _72  and  _75
REMARK   36  A    between atoms: _75  and  _76
REMARK   37  A    between atoms: _81  and  _82
REMARK   38  A    between atoms: _85  and  _86
REMARK   39  A    between atoms: _91  and  _93
REMARK   40  A    between atoms: _93  and  _94
REMARK   41  A    between atoms: _93  and  _96
REMARK   42  A    between atoms: _96  and  _97
REMARK   43  A    between atoms: _100  and  _102
REMARK   44  A    between atoms: _102  and  _103
REMARK   45  A    between atoms: _102  and  _105
REMARK   46  A    between atoms: _105  and  _106
REMARK   47  A    between atoms: _109  and  _111
REMARK   48  A    between atoms: _111  and  _112
REMARK   49  A    between atoms: _115  and  _117
REMARK   50  A    between atoms: _117  and  _118
REMARK   51  A    between atoms: _117  and  _120
REMARK   52  A    between atoms: _120  and  _121
REMARK   53  A    between atoms: _124  and  _126
REMARK   54  A    between atoms: _126  and  _127
REMARK   55  A    between atoms: _126  and  _129
REMARK   56  A    between atoms: _129  and  _130
REMARK   57  A    between atoms: _136  and  _138
REMARK   58  A    between atoms: _138  and  _139
REMARK   59  A    between atoms: _142  and  _144
REMARK   60  A    between atoms: _144  and  _145
REMARK   61  A    between atoms: _144  and  _147
REMARK   62  A    between atoms: _147  and  _148
REMARK   63  A    between atoms: _151  and  _153
REMARK   64  A    between atoms: _153  and  _154
REMARK   65  A    between atoms: _153  and  _156
REMARK   66  A    between atoms: _159  and  _161
REMARK   67  A    between atoms: _161  and  _162
REMARK   68  A    between atoms: _161  and  _164
REMARK   69  A    between atoms: _164  and  _165
REMARK   70  A    between atoms: _170  and  _172
REMARK   71  A    between atoms: _172  and  _173
REMARK   72  A    between atoms: _172  and  _175
REMARK   73  A    between atoms: _175  and  _176
REMARK   74  A    between atoms: _182  and  _184
REMARK   75  A    between atoms: _184  and  _185
REMARK   76  A    between atoms: _184  and  _187
REMARK   77  A    between atoms: _187  and  _188
REMARK   78  A    between atoms: _191  and  _193
REMARK   79  A    between atoms: _193  and  _194
REMARK   80  A    between atoms: _193  and  _196
REMARK   81  A    between atoms: _196  and  _197
REMARK   82  A    between atoms: _200  and  _202
REMARK   83  A    between atoms: _202  and  _203
REMARK   84  A    between atoms: _202  and  _205
REMARK   85  A    between atoms: _205  and  _206
REMARK   86  A    between atoms: _206  and  _207
REMARK   87  A    between atoms: _210  and  _212
REMARK   88  A    between atoms: _212  and  _213
REMARK   89  A    between atoms: _212  and  _215
REMARK   90  A    between atoms: _215  and  _216
REMARK   91  A    between atoms: _216  and  _217
REMARK   92  A    between atoms: _219  and  _221
REMARK   93  A    between atoms: _221  and  _222
REMARK   94  A    between atoms: _221  and  _224
REMARK   95  A    between atoms: _224  and  _225
REMARK   96  A    between atoms: _227  and  _229
REMARK   97  A    between atoms: _229  and  _230
REMARK   98  A    between atoms: _229  and  _232
REMARK   99  A    between atoms: _232  and  _233
REMARK  100  A    between atoms: _238  and  _240
REMARK  101  A    between atoms: _240  and  _241
REMARK  102  A    between atoms: _244  and  _246
REMARK  103  A    between atoms: _246  and  _247
REMARK  104  A    between atoms: _246  and  _249
REMARK  105  A    between atoms: _249  and  _250
REMARK  106  A    between atoms: _253  and  _255
REMARK  107  A    between atoms: _255  and  _256
REMARK  108  A    between atoms: _255  and  _258
REMARK  109  A    between atoms: _261  and  _263
REMARK  110  A    between atoms: _263  and  _264
REMARK  111  A    between atoms: _267  and  _268
REMARK  112  A    between atoms: _273  and  _275
REMARK  113  A    between atoms: _275  and  _276
REMARK  114  A    between atoms: _275  and  _278
REMARK  115  A    between atoms: _278  and  _279
REMARK  116  A    between atoms: _281  and  _283
REMARK  117  A    between atoms: _283  and  _284
REMARK  118  A    between atoms: _283  and  _286
REMARK  119  A    between atoms: _286  and  _287
REMARK  120  A    between atoms: _290  and  _292
REMARK  121  A    between atoms: _292  and  _293
REMARK  122  A    between atoms: _292  and  _295
REMARK  123  A    between atoms: _295  and  _296
REMARK  124  A    between atoms: _296  and  _297
REMARK  125  A    between atoms: _297  and  _298
REMARK  126  A    between atoms: _307  and  _309
REMARK  127  A    between atoms: _309  and  _310
REMARK  128  A    between atoms: _309  and  _312
REMARK  129  A    between atoms: _312  and  _313
REMARK  130  A    between atoms: _316  and  _318
REMARK  131  A    between atoms: _318  and  _319
REMARK  132  A    between atoms: _318  and  _321
REMARK  133  A    between atoms: _321  and  _322
REMARK  134  A    between atoms: _325  and  _326
REMARK  135  A    between atoms: _331  and  _333
REMARK  136  A    between atoms: _333  and  _334
REMARK  137  A    between atoms: _336  and  _338
REMARK  138  A    between atoms: _338  and  _339
REMARK  139  A    between atoms: _338  and  _341
REMARK  140  A    between atoms: _344  and  _346
REMARK  141  A    between atoms: _346  and  _347
REMARK  142  A    between atoms: _349  and  _351
REMARK  143  A    between atoms: _351  and  _352
REMARK  144  A    between atoms: _355  and  _357
REMARK  145  A    between atoms: _357  and  _358
REMARK  146  A    between atoms: _357  and  _360
REMARK  147  A    between atoms: _360  and  _361
REMARK  148  A    between atoms: _361  and  _362
REMARK  149  A    between atoms: _367  and  _369
REMARK  150  A    between atoms: _369  and  _370
REMARK  151  A    between atoms: _372  and  _374
REMARK  152  A    between atoms: _374  and  _375
REMARK  153  A    between atoms: _377  and  _379
REMARK  154  A    between atoms: _379  and  _380
REMARK  155  A    between atoms: _379  and  _382
REMARK  156  A    between atoms: _382  and  _383
REMARK  157  A    between atoms: _386  and  _388
REMARK  158  A    between atoms: _388  and  _389
REMARK  159  A    between atoms: _388  and  _391
REMARK  160  A    between atoms: _394  and  _396
REMARK  161  A    between atoms: _396  and  _397
REMARK  162  A    between atoms: _399  and  _401
REMARK  163  A    between atoms: _401  and  _402
REMARK  164  A    between atoms: _401  and  _404
REMARK  165  A    between atoms: _404  and  _405
REMARK  166  A    between atoms: _405  and  _406
REMARK  167  A    between atoms: _406  and  _407
REMARK  168  A    between atoms: _416  and  _418
REMARK  169  A    between atoms: _418  and  _419
REMARK  170  A    between atoms: _418  and  _421
REMARK  171  A    between atoms: _421  and  _422
REMARK  172  A    between atoms: _424  and  _426
REMARK  173  A    between atoms: _426  and  _427
REMARK  174  A    between atoms: _426  and  _429
REMARK  175  A    between atoms: _429  and  _430
REMARK  176  A    between atoms: _433  and  _435
REMARK  177  A    between atoms: _435  and  _436
REMARK  178  A    between atoms: _435  and  _438
REMARK  179  A    between atoms: _438  and  _439
REMARK  180  A    between atoms: _444  and  _445
REMARK  181  A    between atoms: _447  and  _449
REMARK  182  A    between atoms: _449  and  _450
REMARK  183  A    between atoms: _449  and  _452
REMARK  184  A    between atoms: _452  and  _453
REMARK  185  A    between atoms: _456  and  _458
REMARK  186  A    between atoms: _458  and  _459
REMARK  187  A    between atoms: _462  and  _464
REMARK  188  A    between atoms: _464  and  _465
REMARK  189  A    between atoms: _464  and  _467
REMARK  190  A    between atoms: _467  and  _468
REMARK  191  A    between atoms: _471  and  _473
REMARK  192  A    between atoms: _473  and  _474
REMARK  193  A    between atoms: _473  and  _476
REMARK  194  A    between atoms: _476  and  _477
REMARK  195  A    between atoms: _481  and  _482
REMARK  196  A    between atoms: _487  and  _489
REMARK  197  A    between atoms: _489  and  _490
REMARK  198  A    between atoms: _489  and  _492
REMARK  199  A    between atoms: _492  and  _493
REMARK  200  A    between atoms: _493  and  _494
REMARK  201  A    between atoms: _497  and  _499
REMARK  202  A    between atoms: _499  and  _500
REMARK  203  A    between atoms: _499  and  _502
REMARK  204  A    between atoms: _502  and  _503
REMARK  205  A    between atoms: _506  and  _508
REMARK  206  A    between atoms: _508  and  _509
REMARK  207  A    between atoms: _508  and  _511
REMARK  208  A    between atoms: _511  and  _512
REMARK  209  A    between atoms: _517  and  _519
REMARK  210  A    between atoms: _519  and  _520
REMARK  211  A    between atoms: _519  and  _522
REMARK  212  A    between atoms: _522  and  _523
REMARK  213  A    between atoms: _523  and  _524
REMARK  214  A    between atoms: _524  and  _525
REMARK  215  A    between atoms: _525  and  _526
REMARK  216  A    between atoms: _530  and  _532
REMARK  217  A    between atoms: _532  and  _533
REMARK  218  A    between atoms: _532  and  _535
REMARK  219  A    between atoms: _535  and  _536
REMARK                            x       y       z     vdW  Elec       q    Type
REMARK                         _______ _______ _______ _____ _____    ______ ____
ROOT
ATOM      1  O   HOH     1      19.858 -19.997  14.321  0.00  0.00    +0.000 OA
ENDROOT
TORSDOF 0
REMARK  Name = ../refined-set-2016/2zz2/2zz2_pocket.pdb
REMARK  219 active torsions:
REMARK  status: ('A' for Active; 'I' for Inactive)
REMARK    1  A    between atoms: _1  and  _3
REMARK    2  A    between atoms: _3  and  _4
REMARK    3  A    between atoms: _3  and  _6
REMARK    4  A    between atoms: _6  and  _7
REMARK    5  A    between atoms: _10  and  _12
REMARK    6  A    between atoms: _12  and  _13
REMARK    7  A    between atoms: _12  and  _15
REMARK    8  A    between atoms: _15  and  _16
REMARK    9  A    between atoms: _19  and  _21
REMARK   10  A    between atoms: _21  and  _22
REMARK   11  A    between atoms: _25  and  _27
REMARK   12  A    between atoms: _27  and  _28
REMARK   13  A    between atoms: _27  and  _30
REMARK   14  A    between atoms: _30  and  _31
REMARK   15  A    between atoms: _31  and  _32
REMARK   16  A    between atoms: _34  and  _36
REMARK   17  A    between atoms: _36  and  _37
REMARK   18  A    between atoms: _36  and  _39
REMARK   19  A    between atoms: _39  and  _40
REMARK   20  A    between atoms: _43  and  _45
REMARK   21  A    between atoms: _45  and  _46
REMARK   22  A    between atoms: _45  and  _48
REMARK   23  A    between atoms: _48  and  _49
REMARK   24  A    between atoms: _49  and  _50
REMARK   25  A    between atoms: _50  and  _51
REMARK   26  A    between atoms: _51  and  _52
REMARK   27  A    between atoms: _56  and  _58
REMARK   28  A    between atoms: _58  and  _59
REMARK   29  A    between atoms: _58  and  _61
REMARK   30  A    between atoms: _61  and  _62
REMARK   31  A    between atoms: _65  and  _67
REMARK   32  A    between atoms: _67  and  _68
REMARK   33  A    between atoms: _70  and  _72
REMARK   34  A    between atoms: _72  and  _73
REMARK   35  A    between atoms: _72  and  _75
REMARK   36  A    between atoms: _75  and  _76
REMARK   37  A    between atoms: _81  and  _82
REMARK   38  A    between atoms: _85  and  _86
REMARK   39  A    between atoms: _91  and  _93
REMARK   40  A    between atoms: _93  and  _94
REMARK   41  A    between atoms: _93  and  _96
REMARK   42  A    between atoms: _96  and  _97
REMARK   43  A    between atoms: _100  and  _102
REMARK   44  A    between atoms: _102  and  _103
REMARK   45  A    between atoms: _102  and  _105
REMARK   46  A    between atoms: _105  and  _106
REMARK   47  A    between atoms: _109  and  _111
REMARK   48  A    between atoms: _111  and  _112
REMARK   49  A    between atoms: _115  and  _117
REMARK   50  A    between atoms: _117  and  _118
REMARK   51  A    between atoms: _117  and  _120
REMARK   52  A    between atoms: _120  and  _121
REMARK   53  A    between atoms: _124  and  _126
REMARK   54  A    between atoms: _126  and  _127
REMARK   55  A    between atoms: _126  and  _129
REMARK   56  A    between atoms: _129  and  _130
REMARK   57  A    between atoms: _136  and  _138
REMARK   58  A    between atoms: _138  and  _139
REMARK   59  A    between atoms: _142  and  _144
REMARK   60  A    between atoms: _144  and  _145
REMARK   61  A    between atoms: _144  and  _147
REMARK   62  A    between atoms: _147  and  _148
REMARK   63  A    between atoms: _151  and  _153
REMARK   64  A    between atoms: _153  and  _154
REMARK   65  A    between atoms: _153  and  _156
REMARK   66  A    between atoms: _159  and  _161
REMARK   67  A    between atoms: _161  and  _162
REMARK   68  A    between atoms: _161  and  _164
REMARK   69  A    between atoms: _164  and  _165
REMARK   70  A    between atoms: _170  and  _172
REMARK   71  A    between atoms: _172  and  _173
REMARK   72  A    between atoms: _172  and  _175
REMARK   73  A    between atoms: _175  and  _176
REMARK   74  A    between atoms: _182  and  _184
REMARK   75  A    between atoms: _184  and  _185
REMARK   76  A    between atoms: _184  and  _187
REMARK   77  A    between atoms: _187  and  _188
REMARK   78  A    between atoms: _191  and  _193
REMARK   79  A    between atoms: _193  and  _194
REMARK   80  A    between atoms: _193  and  _196
REMARK   81  A    between atoms: _196  and  _197
REMARK   82  A    between atoms: _200  and  _202
REMARK   83  A    between atoms: _202  and  _203
REMARK   84  A    between atoms: _202  and  _205
REMARK   85  A    between atoms: _205  and  _206
REMARK   86  A    between atoms: _206  and  _207
REMARK   87  A    between atoms: _210  and  _212
REMARK   88  A    between atoms: _212  and  _213
REMARK   89  A    between atoms: _212  and  _215
REMARK   90  A    between atoms: _215  and  _216
REMARK   91  A    between atoms: _216  and  _217
REMARK   92  A    between atoms: _219  and  _221
REMARK   93  A    between atoms: _221  and  _222
REMARK   94  A    between atoms: _221  and  _224
REMARK   95  A    between atoms: _224  and  _225
REMARK   96  A    between atoms: _227  and  _229
REMARK   97  A    between atoms: _229  and  _230
REMARK   98  A    between atoms: _229  and  _232
REMARK   99  A    between atoms: _232  and  _233
REMARK  100  A    between atoms: _238  and  _240
REMARK  101  A    between atoms: _240  and  _241
REMARK  102  A    between atoms: _244  and  _246
REMARK  103  A    between atoms: _246  and  _247
REMARK  104  A    between atoms: _246  and  _249
REMARK  105  A    between atoms: _249  and  _250
REMARK  106  A    between atoms: _253  and  _255
REMARK  107  A    between atoms: _255  and  _256
REMARK  108  A    between atoms: _255  and  _258
REMARK  109  A    between atoms: _261  and  _263
REMARK  110  A    between atoms: _263  and  _264
REMARK  111  A    between atoms: _267  and  _268
REMARK  112  A    between atoms: _273  and  _275
REMARK  113  A    between atoms: _275  and  _276
REMARK  114  A    between atoms: _275  and  _278
REMARK  115  A    between atoms: _278  and  _279
REMARK  116  A    between atoms: _281  and  _283
REMARK  117  A    between atoms: _283  and  _284
REMARK  118  A    between atoms: _283  and  _286
REMARK  119  A    between atoms: _286  and  _287
REMARK  120  A    between atoms: _290  and  _292
REMARK  121  A    between atoms: _292  and  _293
REMARK  122  A    between atoms: _292  and  _295
REMARK  123  A    between atoms: _295  and  _296
REMARK  124  A    between atoms: _296  and  _297
REMARK  125  A    between atoms: _297  and  _298
REMARK  126  A    between atoms: _307  and  _309
REMARK  127  A    between atoms: _309  and  _310
REMARK  128  A    between atoms: _309  and  _312
REMARK  129  A    between atoms: _312  and  _313
REMARK  130  A    between atoms: _316  and  _318
REMARK  131  A    between atoms: _318  and  _319
REMARK  132  A    between atoms: _318  and  _321
REMARK  133  A    between atoms: _321  and  _322
REMARK  134  A    between atoms: _325  and  _326
REMARK  135  A    between atoms: _331  and  _333
REMARK  136  A    between atoms: _333  and  _334
REMARK  137  A    between atoms: _336  and  _338
REMARK  138  A    between atoms: _338  and  _339
REMARK  139  A    between atoms: _338  and  _341
REMARK  140  A    between atoms: _344  and  _346
REMARK  141  A    between atoms: _346  and  _347
REMARK  142  A    between atoms: _349  and  _351
REMARK  143  A    between atoms: _351  and  _352
REMARK  144  A    between atoms: _355  and  _357
REMARK  145  A    between atoms: _357  and  _358
REMARK  146  A    between atoms: _357  and  _360
REMARK  147  A    between atoms: _360  and  _361
REMARK  148  A    between atoms: _361  and  _362
REMARK  149  A    between atoms: _367  and  _369
REMARK  150  A    between atoms: _369  and  _370
REMARK  151  A    between atoms: _372  and  _374
REMARK  152  A    between atoms: _374  and  _375
REMARK  153  A    between atoms: _377  and  _379
REMARK  154  A    between atoms: _379  and  _380
REMARK  155  A    between atoms: _379  and  _382
REMARK  156  A    between atoms: _382  and  _383
REMARK  157  A    between atoms: _386  and  _388
REMARK  158  A    between atoms: _388  and  _389
REMARK  159  A    between atoms: _388  and  _391
REMARK  160  A    between atoms: _394  and  _396
REMARK  161  A    between atoms: _396  and  _397
REMARK  162  A    between atoms: _399  and  _401
REMARK  163  A    between atoms: _401  and  _402
REMARK  164  A    between atoms: _401  and  _404
REMARK  165  A    between atoms: _404  and  _405
REMARK  166  A    between atoms: _405  and  _406
REMARK  167  A    between atoms: _406  and  _407
REMARK  168  A    between atoms: _416  and  _418
REMARK  169  A    between atoms: _418  and  _419
REMARK  170  A    between atoms: _418  and  _421
REMARK  171  A    between atoms: _421  and  _422
REMARK  172  A    between atoms: _424  and  _426
REMARK  173  A    between atoms: _426  and  _427
REMARK  174  A    between atoms: _426  and  _429
REMARK  175  A    between atoms: _429  and  _430
REMARK  176  A    between atoms: _433  and  _435
REMARK  177  A    between atoms: _435  and  _436
REMARK  178  A    between atoms: _435  and  _438
REMARK  179  A    between atoms: _438  and  _439
REMARK  180  A    between atoms: _444  and  _445
REMARK  181  A    between atoms: _447  and  _449
REMARK  182  A    between atoms: _449  and  _450
REMARK  183  A    between atoms: _449  and  _452
REMARK  184  A    between atoms: _452  and  _453
REMARK  185  A    between atoms: _456  and  _458
REMARK  186  A    between atoms: _458  and  _459
REMARK  187  A    between atoms: _462  and  _464
REMARK  188  A    between atoms: _464  and  _465
REMARK  189  A    between atoms: _464  and  _467
REMARK  190  A    between atoms: _467  and  _468
REMARK  191  A    between atoms: _471  and  _473
REMARK  192  A    between atoms: _473  and  _474
REMARK  193  A    between atoms: _473  and  _476
REMARK  194  A    between atoms: _476  and  _477
REMARK  195  A    between atoms: _481  and  _482
REMARK  196  A    between atoms: _487  and  _489
REMARK  197  A    between atoms: _489  and  _490
REMARK  198  A    between atoms: _489  and  _492
REMARK  199  A    between atoms: _492  and  _493
REMARK  200  A    between atoms: _493  and  _494
REMARK  201  A    between atoms: _497  and  _499
REMARK  202  A    between atoms: _499  and  _500
REMARK  203  A    between atoms: _499  and  _502
REMARK  204  A    between atoms: _502  and  _503
REMARK  205  A    between atoms: _506  and  _508
REMARK  206  A    between atoms: _508  and  _509
REMARK  207  A    between atoms: _508  and  _511
REMARK  208  A    between atoms: _511  and  _512
REMARK  209  A    between atoms: _517  and  _519
REMARK  210  A    between atoms: _519  and  _520
REMARK  211  A    between atoms: _519  and  _522
REMARK  212  A    between atoms: _522  and  _523
REMARK  213  A    between atoms: _523  and  _524
REMARK  214  A    between atoms: _524  and  _525
REMARK  215  A    between atoms: _525  and  _526
REMARK  216  A    between atoms: _530  and  _532
REMARK  217  A    between atoms: _532  and  _533
REMARK  218  A    between atoms: _532  and  _535
REMARK  219  A    between atoms: _535  and  _536
REMARK                            x       y       z     vdW  Elec       q    Type
REMARK                         _______ _______ _______ _____ _____    ______ ____
ROOT
ATOM      1  O   HOH     1      23.709 -17.108  21.101  0.00  0.00    +0.000 OA
ENDROOT
TORSDOF 0
REMARK  Name = ../refined-set-2016/2zz2/2zz2_pocket.pdb
REMARK  219 active torsions:
REMARK  status: ('A' for Active; 'I' for Inactive)
REMARK    1  A    between atoms: _1  and  _3
REMARK    2  A    between atoms: _3  and  _4
REMARK    3  A    between atoms: _3  and  _6
REMARK    4  A    between atoms: _6  and  _7
REMARK    5  A    between atoms: _10  and  _12
REMARK    6  A    between atoms: _12  and  _13
REMARK    7  A    between atoms: _12  and  _15
REMARK    8  A    between atoms: _15  and  _16
REMARK    9  A    between atoms: _19  and  _21
REMARK   10  A    between atoms: _21  and  _22
REMARK   11  A    between atoms: _25  and  _27
REMARK   12  A    between atoms: _27  and  _28
REMARK   13  A    between atoms: _27  and  _30
REMARK   14  A    between atoms: _30  and  _31
REMARK   15  A    between atoms: _31  and  _32
REMARK   16  A    between atoms: _34  and  _36
REMARK   17  A    between atoms: _36  and  _37
REMARK   18  A    between atoms: _36  and  _39
REMARK   19  A    between atoms: _39  and  _40
REMARK   20  A    between atoms: _43  and  _45
REMARK   21  A    between atoms: _45  and  _46
REMARK   22  A    between atoms: _45  and  _48
REMARK   23  A    between atoms: _48  and  _49
REMARK   24  A    between atoms: _49  and  _50
REMARK   25  A    between atoms: _50  and  _51
REMARK   26  A    between atoms: _51  and  _52
REMARK   27  A    between atoms: _56  and  _58
REMARK   28  A    between atoms: _58  and  _59
REMARK   29  A    between atoms: _58  and  _61
REMARK   30  A    between atoms: _61  and  _62
REMARK   31  A    between atoms: _65  and  _67
REMARK   32  A    between atoms: _67  and  _68
REMARK   33  A    between atoms: _70  and  _72
REMARK   34  A    between atoms: _72  and  _73
REMARK   35  A    between atoms: _72  and  _75
REMARK   36  A    between atoms: _75  and  _76
REMARK   37  A    between atoms: _81  and  _82
REMARK   38  A    between atoms: _85  and  _86
REMARK   39  A    between atoms: _91  and  _93
REMARK   40  A    between atoms: _93  and  _94
REMARK   41  A    between atoms: _93  and  _96
REMARK   42  A    between atoms: _96  and  _97
REMARK   43  A    between atoms: _100  and  _102
REMARK   44  A    between atoms: _102  and  _103
REMARK   45  A    between atoms: _102  and  _105
REMARK   46  A    between atoms: _105  and  _106
REMARK   47  A    between atoms: _109  and  _111
REMARK   48  A    between atoms: _111  and  _112
REMARK   49  A    between atoms: _115  and  _117
REMARK   50  A    between atoms: _117  and  _118
REMARK   51  A    between atoms: _117  and  _120
REMARK   52  A    between atoms: _120  and  _121
REMARK   53  A    between atoms: _124  and  _126
REMARK   54  A    between atoms: _126  and  _127
REMARK   55  A    between atoms: _126  and  _129
REMARK   56  A    between atoms: _129  and  _130
REMARK   57  A    between atoms: _136  and  _138
REMARK   58  A    between atoms: _138  and  _139
REMARK   59  A    between atoms: _142  and  _144
REMARK   60  A    between atoms: _144  and  _145
REMARK   61  A    between atoms: _144  and  _147
REMARK   62  A    between atoms: _147  and  _148
REMARK   63  A    between atoms: _151  and  _153
REMARK   64  A    between atoms: _153  and  _154
REMARK   65  A    between atoms: _153  and  _156
REMARK   66  A    between atoms: _159  and  _161
REMARK   67  A    between atoms: _161  and  _162
REMARK   68  A    between atoms: _161  and  _164
REMARK   69  A    between atoms: _164  and  _165
REMARK   70  A    between atoms: _170  and  _172
REMARK   71  A    between atoms: _172  and  _173
REMARK   72  A    between atoms: _172  and  _175
REMARK   73  A    between atoms: _175  and  _176
REMARK   74  A    between atoms: _182  and  _184
REMARK   75  A    between atoms: _184  and  _185
REMARK   76  A    between atoms: _184  and  _187
REMARK   77  A    between atoms: _187  and  _188
REMARK   78  A    between atoms: _191  and  _193
REMARK   79  A    between atoms: _193  and  _194
REMARK   80  A    between atoms: _193  and  _196
REMARK   81  A    between atoms: _196  and  _197
REMARK   82  A    between atoms: _200  and  _202
REMARK   83  A    between atoms: _202  and  _203
REMARK   84  A    between atoms: _202  and  _205
REMARK   85  A    between atoms: _205  and  _206
REMARK   86  A    between atoms: _206  and  _207
REMARK   87  A    between atoms: _210  and  _212
REMARK   88  A    between atoms: _212  and  _213
REMARK   89  A    between atoms: _212  and  _215
REMARK   90  A    between atoms: _215  and  _216
REMARK   91  A    between atoms: _216  and  _217
REMARK   92  A    between atoms: _219  and  _221
REMARK   93  A    between atoms: _221  and  _222
REMARK   94  A    between atoms: _221  and  _224
REMARK   95  A    between atoms: _224  and  _225
REMARK   96  A    between atoms: _227  and  _229
REMARK   97  A    between atoms: _229  and  _230
REMARK   98  A    between atoms: _229  and  _232
REMARK   99  A    between atoms: _232  and  _233
REMARK  100  A    between atoms: _238  and  _240
REMARK  101  A    between atoms: _240  and  _241
REMARK  102  A    between atoms: _244  and  _246
REMARK  103  A    between atoms: _246  and  _247
REMARK  104  A    between atoms: _246  and  _249
REMARK  105  A    between atoms: _249  and  _250
REMARK  106  A    between atoms: _253  and  _255
REMARK  107  A    between atoms: _255  and  _256
REMARK  108  A    between atoms: _255  and  _258
REMARK  109  A    between atoms: _261  and  _263
REMARK  110  A    between atoms: _263  and  _264
REMARK  111  A    between atoms: _267  and  _268
REMARK  112  A    between atoms: _273  and  _275
REMARK  113  A    between atoms: _275  and  _276
REMARK  114  A    between atoms: _275  and  _278
REMARK  115  A    between atoms: _278  and  _279
REMARK  116  A    between atoms: _281  and  _283
REMARK  117  A    between atoms: _283  and  _284
REMARK  118  A    between atoms: _283  and  _286
REMARK  119  A    between atoms: _286  and  _287
REMARK  120  A    between atoms: _290  and  _292
REMARK  121  A    between atoms: _292  and  _293
REMARK  122  A    between atoms: _292  and  _295
REMARK  123  A    between atoms: _295  and  _296
REMARK  124  A    between atoms: _296  and  _297
REMARK  125  A    between atoms: _297  and  _298
REMARK  126  A    between atoms: _307  and  _309
REMARK  127  A    between atoms: _309  and  _310
REMARK  128  A    between atoms: _309  and  _312
REMARK  129  A    between atoms: _312  and  _313
REMARK  130  A    between atoms: _316  and  _318
REMARK  131  A    between atoms: _318  and  _319
REMARK  132  A    between atoms: _318  and  _321
REMARK  133  A    between atoms: _321  and  _322
REMARK  134  A    between atoms: _325  and  _326
REMARK  135  A    between atoms: _331  and  _333
REMARK  136  A    between atoms: _333  and  _334
REMARK  137  A    between atoms: _336  and  _338
REMARK  138  A    between atoms: _338  and  _339
REMARK  139  A    between atoms: _338  and  _341
REMARK  140  A    between atoms: _344  and  _346
REMARK  141  A    between atoms: _346  and  _347
REMARK  142  A    between atoms: _349  and  _351
REMARK  143  A    between atoms: _351  and  _352
REMARK  144  A    between atoms: _355  and  _357
REMARK  145  A    between atoms: _357  and  _358
REMARK  146  A    between atoms: _357  and  _360
REMARK  147  A    between atoms: _360  and  _361
REMARK  148  A    between atoms: _361  and  _362
REMARK  149  A    between atoms: _367  and  _369
REMARK  150  A    between atoms: _369  and  _370
REMARK  151  A    between atoms: _372  and  _374
REMARK  152  A    between atoms: _374  and  _375
REMARK  153  A    between atoms: _377  and  _379
REMARK  154  A    between atoms: _379  and  _380
REMARK  155  A    between atoms: _379  and  _382
REMARK  156  A    between atoms: _382  and  _383
REMARK  157  A    between atoms: _386  and  _388
REMARK  158  A    between atoms: _388  and  _389
REMARK  159  A    between atoms: _388  and  _391
REMARK  160  A    between atoms: _394  and  _396
REMARK  161  A    between atoms: _396  and  _397
REMARK  162  A    between atoms: _399  and  _401
REMARK  163  A    between atoms: _401  and  _402
REMARK  164  A    between atoms: _401  and  _404
REMARK  165  A    between atoms: _404  and  _405
REMARK  166  A    between atoms: _405  and  _406
REMARK  167  A    between atoms: _406  and  _407
REMARK  168  A    between atoms: _416  and  _418
REMARK  169  A    between atoms: _418  and  _419
REMARK  170  A    between atoms: _418  and  _421
REMARK  171  A    between atoms: _421  and  _422
REMARK  172  A    between atoms: _424  and  _426
REMARK  173  A    between atoms: _426  and  _427
REMARK  174  A    between atoms: _426  and  _429
REMARK  175  A    between atoms: _429  and  _430
REMARK  176  A    between atoms: _433  and  _435
REMARK  177  A    between atoms: _435  and  _436
REMARK  178  A    between atoms: _435  and  _438
REMARK  179  A    between atoms: _438  and  _439
REMARK  180  A    between atoms: _444  and  _445
REMARK  181  A    between atoms: _447  and  _449
REMARK  182  A    between atoms: _449  and  _450
REMARK  183  A    between atoms: _449  and  _452
REMARK  184  A    between atoms: _452  and  _453
REMARK  185  A    between atoms: _456  and  _458
REMARK  186  A    between atoms: _458  and  _459
REMARK  187  A    between atoms: _462  and  _464
REMARK  188  A    between atoms: _464  and  _465
REMARK  189  A    between atoms: _464  and  _467
REMARK  190  A    between atoms: _467  and  _468
REMARK  191  A    between atoms: _471  and  _473
REMARK  192  A    between atoms: _473  and  _474
REMARK  193  A    between atoms: _473  and  _476
REMARK  194  A    between atoms: _476  and  _477
REMARK  195  A    between atoms: _481  and  _482
REMARK  196  A    between atoms: _487  and  _489
REMARK  197  A    between atoms: _489  and  _490
REMARK  198  A    between atoms: _489  and  _492
REMARK  199  A    between atoms: _492  and  _493
REMARK  200  A    between atoms: _493  and  _494
REMARK  201  A    between atoms: _497  and  _499
REMARK  202  A    between atoms: _499  and  _500
REMARK  203  A    between atoms: _499  and  _502
REMARK  204  A    between atoms: _502  and  _503
REMARK  205  A    between atoms: _506  and  _508
REMARK  206  A    between atoms: _508  and  _509
REMARK  207  A    between atoms: _508  and  _511
REMARK  208  A    between atoms: _511  and  _512
REMARK  209  A    between atoms: _517  and  _519
REMARK  210  A    between atoms: _519  and  _520
REMARK  211  A    between atoms: _519  and  _522
REMARK  212  A    between atoms: _522  and  _523
REMARK  213  A    between atoms: _523  and  _524
REMARK  214  A    between atoms: _524  and  _525
REMARK  215  A    between atoms: _525  and  _526
REMARK  216  A    between atoms: _530  and  _532
REMARK  217  A    between atoms: _532  and  _533
REMARK  218  A    between atoms: _532  and  _535
REMARK  219  A    between atoms: _535  and  _536
REMARK                            x       y       z     vdW  Elec       q    Type
REMARK                         _______ _______ _______ _____ _____    ______ ____
ROOT
ATOM      1  O   HOH     1      21.722 -17.813  16.639  0.00  0.00    +0.000 OA
ENDROOT
TORSDOF 0
REMARK  Name = ../refined-set-2016/2zz2/2zz2_pocket.pdb
REMARK  219 active torsions:
REMARK  status: ('A' for Active; 'I' for Inactive)
REMARK    1  A    between atoms: _1  and  _3
REMARK    2  A    between atoms: _3  and  _4
REMARK    3  A    between atoms: _3  and  _6
REMARK    4  A    between atoms: _6  and  _7
REMARK    5  A    between atoms: _10  and  _12
REMARK    6  A    between atoms: _12  and  _13
REMARK    7  A    between atoms: _12  and  _15
REMARK    8  A    between atoms: _15  and  _16
REMARK    9  A    between atoms: _19  and  _21
REMARK   10  A    between atoms: _21  and  _22
REMARK   11  A    between atoms: _25  and  _27
REMARK   12  A    between atoms: _27  and  _28
REMARK   13  A    between atoms: _27  and  _30
REMARK   14  A    between atoms: _30  and  _31
REMARK   15  A    between atoms: _31  and  _32
REMARK   16  A    between atoms: _34  and  _36
REMARK   17  A    between atoms: _36  and  _37
REMARK   18  A    between atoms: _36  and  _39
REMARK   19  A    between atoms: _39  and  _40
REMARK   20  A    between atoms: _43  and  _45
REMARK   21  A    between atoms: _45  and  _46
REMARK   22  A    between atoms: _45  and  _48
REMARK   23  A    between atoms: _48  and  _49
REMARK   24  A    between atoms: _49  and  _50
REMARK   25  A    between atoms: _50  and  _51
REMARK   26  A    between atoms: _51  and  _52
REMARK   27  A    between atoms: _56  and  _58
REMARK   28  A    between atoms: _58  and  _59
REMARK   29  A    between atoms: _58  and  _61
REMARK   30  A    between atoms: _61  and  _62
REMARK   31  A    between atoms: _65  and  _67
REMARK   32  A    between atoms: _67  and  _68
REMARK   33  A    between atoms: _70  and  _72
REMARK   34  A    between atoms: _72  and  _73
REMARK   35  A    between atoms: _72  and  _75
REMARK   36  A    between atoms: _75  and  _76
REMARK   37  A    between atoms: _81  and  _82
REMARK   38  A    between atoms: _85  and  _86
REMARK   39  A    between atoms: _91  and  _93
REMARK   40  A    between atoms: _93  and  _94
REMARK   41  A    between atoms: _93  and  _96
REMARK   42  A    between atoms: _96  and  _97
REMARK   43  A    between atoms: _100  and  _102
REMARK   44  A    between atoms: _102  and  _103
REMARK   45  A    between atoms: _102  and  _105
REMARK   46  A    between atoms: _105  and  _106
REMARK   47  A    between atoms: _109  and  _111
REMARK   48  A    between atoms: _111  and  _112
REMARK   49  A    between atoms: _115  and  _117
REMARK   50  A    between atoms: _117  and  _118
REMARK   51  A    between atoms: _117  and  _120
REMARK   52  A    between atoms: _120  and  _121
REMARK   53  A    between atoms: _124  and  _126
REMARK   54  A    between atoms: _126  and  _127
REMARK   55  A    between atoms: _126  and  _129
REMARK   56  A    between atoms: _129  and  _130
REMARK   57  A    between atoms: _136  and  _138
REMARK   58  A    between atoms: _138  and  _139
REMARK   59  A    between atoms: _142  and  _144
REMARK   60  A    between atoms: _144  and  _145
REMARK   61  A    between atoms: _144  and  _147
REMARK   62  A    between atoms: _147  and  _148
REMARK   63  A    between atoms: _151  and  _153
REMARK   64  A    between atoms: _153  and  _154
REMARK   65  A    between atoms: _153  and  _156
REMARK   66  A    between atoms: _159  and  _161
REMARK   67  A    between atoms: _161  and  _162
REMARK   68  A    between atoms: _161  and  _164
REMARK   69  A    between atoms: _164  and  _165
REMARK   70  A    between atoms: _170  and  _172
REMARK   71  A    between atoms: _172  and  _173
REMARK   72  A    between atoms: _172  and  _175
REMARK   73  A    between atoms: _175  and  _176
REMARK   74  A    between atoms: _182  and  _184
REMARK   75  A    between atoms: _184  and  _185
REMARK   76  A    between atoms: _184  and  _187
REMARK   77  A    between atoms: _187  and  _188
REMARK   78  A    between atoms: _191  and  _193
REMARK   79  A    between atoms: _193  and  _194
REMARK   80  A    between atoms: _193  and  _196
REMARK   81  A    between atoms: _196  and  _197
REMARK   82  A    between atoms: _200  and  _202
REMARK   83  A    between atoms: _202  and  _203
REMARK   84  A    between atoms: _202  and  _205
REMARK   85  A    between atoms: _205  and  _206
REMARK   86  A    between atoms: _206  and  _207
REMARK   87  A    between atoms: _210  and  _212
REMARK   88  A    between atoms: _212  and  _213
REMARK   89  A    between atoms: _212  and  _215
REMARK   90  A    between atoms: _215  and  _216
REMARK   91  A    between atoms: _216  and  _217
REMARK   92  A    between atoms: _219  and  _221
REMARK   93  A    between atoms: _221  and  _222
REMARK   94  A    between atoms: _221  and  _224
REMARK   95  A    between atoms: _224  and  _225
REMARK   96  A    between atoms: _227  and  _229
REMARK   97  A    between atoms: _229  and  _230
REMARK   98  A    between atoms: _229  and  _232
REMARK   99  A    between atoms: _232  and  _233
REMARK  100  A    between atoms: _238  and  _240
REMARK  101  A    between atoms: _240  and  _241
REMARK  102  A    between atoms: _244  and  _246
REMARK  103  A    between atoms: _246  and  _247
REMARK  104  A    between atoms: _246  and  _249
REMARK  105  A    between atoms: _249  and  _250
REMARK  106  A    between atoms: _253  and  _255
REMARK  107  A    between atoms: _255  and  _256
REMARK  108  A    between atoms: _255  and  _258
REMARK  109  A    between atoms: _261  and  _263
REMARK  110  A    between atoms: _263  and  _264
REMARK  111  A    between atoms: _267  and  _268
REMARK  112  A    between atoms: _273  and  _275
REMARK  113  A    between atoms: _275  and  _276
REMARK  114  A    between atoms: _275  and  _278
REMARK  115  A    between atoms: _278  and  _279
REMARK  116  A    between atoms: _281  and  _283
REMARK  117  A    between atoms: _283  and  _284
REMARK  118  A    between atoms: _283  and  _286
REMARK  119  A    between atoms: _286  and  _287
REMARK  120  A    between atoms: _290  and  _292
REMARK  121  A    between atoms: _292  and  _293
REMARK  122  A    between atoms: _292  and  _295
REMARK  123  A    between atoms: _295  and  _296
REMARK  124  A    between atoms: _296  and  _297
REMARK  125  A    between atoms: _297  and  _298
REMARK  126  A    between atoms: _307  and  _309
REMARK  127  A    between atoms: _309  and  _310
REMARK  128  A    between atoms: _309  and  _312
REMARK  129  A    between atoms: _312  and  _313
REMARK  130  A    between atoms: _316  and  _318
REMARK  131  A    between atoms: _318  and  _319
REMARK  132  A    between atoms: _318  and  _321
REMARK  133  A    between atoms: _321  and  _322
REMARK  134  A    between atoms: _325  and  _326
REMARK  135  A    between atoms: _331  and  _333
REMARK  136  A    between atoms: _333  and  _334
REMARK  137  A    between atoms: _336  and  _338
REMARK  138  A    between atoms: _338  and  _339
REMARK  139  A    between atoms: _338  and  _341
REMARK  140  A    between atoms: _344  and  _346
REMARK  141  A    between atoms: _346  and  _347
REMARK  142  A    between atoms: _349  and  _351
REMARK  143  A    between atoms: _351  and  _352
REMARK  144  A    between atoms: _355  and  _357
REMARK  145  A    between atoms: _357  and  _358
REMARK  146  A    between atoms: _357  and  _360
REMARK  147  A    between atoms: _360  and  _361
REMARK  148  A    between atoms: _361  and  _362
REMARK  149  A    between atoms: _367  and  _369
REMARK  150  A    between atoms: _369  and  _370
REMARK  151  A    between atoms: _372  and  _374
REMARK  152  A    between atoms: _374  and  _375
REMARK  153  A    between atoms: _377  and  _379
REMARK  154  A    between atoms: _379  and  _380
REMARK  155  A    between atoms: _379  and  _382
REMARK  156  A    between atoms: _382  and  _383
REMARK  157  A    between atoms: _386  and  _388
REMARK  158  A    between atoms: _388  and  _389
REMARK  159  A    between atoms: _388  and  _391
REMARK  160  A    between atoms: _394  and  _396
REMARK  161  A    between atoms: _396  and  _397
REMARK  162  A    between atoms: _399  and  _401
REMARK  163  A    between atoms: _401  and  _402
REMARK  164  A    between atoms: _401  and  _404
REMARK  165  A    between atoms: _404  and  _405
REMARK  166  A    between atoms: _405  and  _406
REMARK  167  A    between atoms: _406  and  _407
REMARK  168  A    between atoms: _416  and  _418
REMARK  169  A    between atoms: _418  and  _419
REMARK  170  A    between atoms: _418  and  _421
REMARK  171  A    between atoms: _421  and  _422
REMARK  172  A    between atoms: _424  and  _426
REMARK  173  A    between atoms: _426  and  _427
REMARK  174  A    between atoms: _426  and  _429
REMARK  175  A    between atoms: _429  and  _430
REMARK  176  A    between atoms: _433  and  _435
REMARK  177  A    between atoms: _435  and  _436
REMARK  178  A    between atoms: _435  and  _438
REMARK  179  A    between atoms: _438  and  _439
REMARK  180  A    between atoms: _444  and  _445
REMARK  181  A    between atoms: _447  and  _449
REMARK  182  A    between atoms: _449  and  _450
REMARK  183  A    between atoms: _449  and  _452
REMARK  184  A    between atoms: _452  and  _453
REMARK  185  A    between atoms: _456  and  _458
REMARK  186  A    between atoms: _458  and  _459
REMARK  187  A    between atoms: _462  and  _464
REMARK  188  A    between atoms: _464  and  _465
REMARK  189  A    between atoms: _464  and  _467
REMARK  190  A    between atoms: _467  and  _468
REMARK  191  A    between atoms: _471  and  _473
REMARK  192  A    between atoms: _473  and  _474
REMARK  193  A    between atoms: _473  and  _476
REMARK  194  A    between atoms: _476  and  _477
REMARK  195  A    between atoms: _481  and  _482
REMARK  196  A    between atoms: _487  and  _489
REMARK  197  A    between atoms: _489  and  _490
REMARK  198  A    between atoms: _489  and  _492
REMARK  199  A    between atoms: _492  and  _493
REMARK  200  A    between atoms: _493  and  _494
REMARK  201  A    between atoms: _497  and  _499
REMARK  202  A    between atoms: _499  and  _500
REMARK  203  A    between atoms: _499  and  _502
REMARK  204  A    between atoms: _502  and  _503
REMARK  205  A    between atoms: _506  and  _508
REMARK  206  A    between atoms: _508  and  _509
REMARK  207  A    between atoms: _508  and  _511
REMARK  208  A    between atoms: _511  and  _512
REMARK  209  A    between atoms: _517  and  _519
REMARK  210  A    between atoms: _519  and  _520
REMARK  211  A    between atoms: _519  and  _522
REMARK  212  A    between atoms: _522  and  _523
REMARK  213  A    between atoms: _523  and  _524
REMARK  214  A    between atoms: _524  and  _525
REMARK  215  A    between atoms: _525  and  _526
REMARK  216  A    between atoms: _530  and  _532
REMARK  217  A    between atoms: _532  and  _533
REMARK  218  A    between atoms: _532  and  _535
REMARK  219  A    between atoms: _535  and  _536
REMARK                            x       y       z     vdW  Elec       q    Type
REMARK                         _______ _______ _______ _____ _____    ______ ____
ROOT
ATOM      1  O   HOH     1      22.192 -13.067  13.005  0.00  0.00    +0.000 OA
ENDROOT
TORSDOF 0
REMARK  Name = ../refined-set-2016/2zz2/2zz2_pocket.pdb
REMARK  219 active torsions:
REMARK  status: ('A' for Active; 'I' for Inactive)
REMARK    1  A    between atoms: _1  and  _3
REMARK    2  A    between atoms: _3  and  _4
REMARK    3  A    between atoms: _3  and  _6
REMARK    4  A    between atoms: _6  and  _7
REMARK    5  A    between atoms: _10  and  _12
REMARK    6  A    between atoms: _12  and  _13
REMARK    7  A    between atoms: _12  and  _15
REMARK    8  A    between atoms: _15  and  _16
REMARK    9  A    between atoms: _19  and  _21
REMARK   10  A    between atoms: _21  and  _22
REMARK   11  A    between atoms: _25  and  _27
REMARK   12  A    between atoms: _27  and  _28
REMARK   13  A    between atoms: _27  and  _30
REMARK   14  A    between atoms: _30  and  _31
REMARK   15  A    between atoms: _31  and  _32
REMARK   16  A    between atoms: _34  and  _36
REMARK   17  A    between atoms: _36  and  _37
REMARK   18  A    between atoms: _36  and  _39
REMARK   19  A    between atoms: _39  and  _40
REMARK   20  A    between atoms: _43  and  _45
REMARK   21  A    between atoms: _45  and  _46
REMARK   22  A    between atoms: _45  and  _48
REMARK   23  A    between atoms: _48  and  _49
REMARK   24  A    between atoms: _49  and  _50
REMARK   25  A    between atoms: _50  and  _51
REMARK   26  A    between atoms: _51  and  _52
REMARK   27  A    between atoms: _56  and  _58
REMARK   28  A    between atoms: _58  and  _59
REMARK   29  A    between atoms: _58  and  _61
REMARK   30  A    between atoms: _61  and  _62
REMARK   31  A    between atoms: _65  and  _67
REMARK   32  A    between atoms: _67  and  _68
REMARK   33  A    between atoms: _70  and  _72
REMARK   34  A    between atoms: _72  and  _73
REMARK   35  A    between atoms: _72  and  _75
REMARK   36  A    between atoms: _75  and  _76
REMARK   37  A    between atoms: _81  and  _82
REMARK   38  A    between atoms: _85  and  _86
REMARK   39  A    between atoms: _91  and  _93
REMARK   40  A    between atoms: _93  and  _94
REMARK   41  A    between atoms: _93  and  _96
REMARK   42  A    between atoms: _96  and  _97
REMARK   43  A    between atoms: _100  and  _102
REMARK   44  A    between atoms: _102  and  _103
REMARK   45  A    between atoms: _102  and  _105
REMARK   46  A    between atoms: _105  and  _106
REMARK   47  A    between atoms: _109  and  _111
REMARK   48  A    between atoms: _111  and  _112
REMARK   49  A    between atoms: _115  and  _117
REMARK   50  A    between atoms: _117  and  _118
REMARK   51  A    between atoms: _117  and  _120
REMARK   52  A    between atoms: _120  and  _121
REMARK   53  A    between atoms: _124  and  _126
REMARK   54  A    between atoms: _126  and  _127
REMARK   55  A    between atoms: _126  and  _129
REMARK   56  A    between atoms: _129  and  _130
REMARK   57  A    between atoms: _136  and  _138
REMARK   58  A    between atoms: _138  and  _139
REMARK   59  A    between atoms: _142  and  _144
REMARK   60  A    between atoms: _144  and  _145
REMARK   61  A    between atoms: _144  and  _147
REMARK   62  A    between atoms: _147  and  _148
REMARK   63  A    between atoms: _151  and  _153
REMARK   64  A    between atoms: _153  and  _154
REMARK   65  A    between atoms: _153  and  _156
REMARK   66  A    between atoms: _159  and  _161
REMARK   67  A    between atoms: _161  and  _162
REMARK   68  A    between atoms: _161  and  _164
REMARK   69  A    between atoms: _164  and  _165
REMARK   70  A    between atoms: _170  and  _172
REMARK   71  A    between atoms: _172  and  _173
REMARK   72  A    between atoms: _172  and  _175
REMARK   73  A    between atoms: _175  and  _176
REMARK   74  A    between atoms: _182  and  _184
REMARK   75  A    between atoms: _184  and  _185
REMARK   76  A    between atoms: _184  and  _187
REMARK   77  A    between atoms: _187  and  _188
REMARK   78  A    between atoms: _191  and  _193
REMARK   79  A    between atoms: _193  and  _194
REMARK   80  A    between atoms: _193  and  _196
REMARK   81  A    between atoms: _196  and  _197
REMARK   82  A    between atoms: _200  and  _202
REMARK   83  A    between atoms: _202  and  _203
REMARK   84  A    between atoms: _202  and  _205
REMARK   85  A    between atoms: _205  and  _206
REMARK   86  A    between atoms: _206  and  _207
REMARK   87  A    between atoms: _210  and  _212
REMARK   88  A    between atoms: _212  and  _213
REMARK   89  A    between atoms: _212  and  _215
REMARK   90  A    between atoms: _215  and  _216
REMARK   91  A    between atoms: _216  and  _217
REMARK   92  A    between atoms: _219  and  _221
REMARK   93  A    between atoms: _221  and  _222
REMARK   94  A    between atoms: _221  and  _224
REMARK   95  A    between atoms: _224  and  _225
REMARK   96  A    between atoms: _227  and  _229
REMARK   97  A    between atoms: _229  and  _230
REMARK   98  A    between atoms: _229  and  _232
REMARK   99  A    between atoms: _232  and  _233
REMARK  100  A    between atoms: _238  and  _240
REMARK  101  A    between atoms: _240  and  _241
REMARK  102  A    between atoms: _244  and  _246
REMARK  103  A    between atoms: _246  and  _247
REMARK  104  A    between atoms: _246  and  _249
REMARK  105  A    between atoms: _249  and  _250
REMARK  106  A    between atoms: _253  and  _255
REMARK  107  A    between atoms: _255  and  _256
REMARK  108  A    between atoms: _255  and  _258
REMARK  109  A    between atoms: _261  and  _263
REMARK  110  A    between atoms: _263  and  _264
REMARK  111  A    between atoms: _267  and  _268
REMARK  112  A    between atoms: _273  and  _275
REMARK  113  A    between atoms: _275  and  _276
REMARK  114  A    between atoms: _275  and  _278
REMARK  115  A    between atoms: _278  and  _279
REMARK  116  A    between atoms: _281  and  _283
REMARK  117  A    between atoms: _283  and  _284
REMARK  118  A    between atoms: _283  and  _286
REMARK  119  A    between atoms: _286  and  _287
REMARK  120  A    between atoms: _290  and  _292
REMARK  121  A    between atoms: _292  and  _293
REMARK  122  A    between atoms: _292  and  _295
REMARK  123  A    between atoms: _295  and  _296
REMARK  124  A    between atoms: _296  and  _297
REMARK  125  A    between atoms: _297  and  _298
REMARK  126  A    between atoms: _307  and  _309
REMARK  127  A    between atoms: _309  and  _310
REMARK  128  A    between atoms: _309  and  _312
REMARK  129  A    between atoms: _312  and  _313
REMARK  130  A    between atoms: _316  and  _318
REMARK  131  A    between atoms: _318  and  _319
REMARK  132  A    between atoms: _318  and  _321
REMARK  133  A    between atoms: _321  and  _322
REMARK  134  A    between atoms: _325  and  _326
REMARK  135  A    between atoms: _331  and  _333
REMARK  136  A    between atoms: _333  and  _334
REMARK  137  A    between atoms: _336  and  _338
REMARK  138  A    between atoms: _338  and  _339
REMARK  139  A    between atoms: _338  and  _341
REMARK  140  A    between atoms: _344  and  _346
REMARK  141  A    between atoms: _346  and  _347
REMARK  142  A    between atoms: _349  and  _351
REMARK  143  A    between atoms: _351  and  _352
REMARK  144  A    between atoms: _355  and  _357
REMARK  145  A    between atoms: _357  and  _358
REMARK  146  A    between atoms: _357  and  _360
REMARK  147  A    between atoms: _360  and  _361
REMARK  148  A    between atoms: _361  and  _362
REMARK  149  A    between atoms: _367  and  _369
REMARK  150  A    between atoms: _369  and  _370
REMARK  151  A    between atoms: _372  and  _374
REMARK  152  A    between atoms: _374  and  _375
REMARK  153  A    between atoms: _377  and  _379
REMARK  154  A    between atoms: _379  and  _380
REMARK  155  A    between atoms: _379  and  _382
REMARK  156  A    between atoms: _382  and  _383
REMARK  157  A    between atoms: _386  and  _388
REMARK  158  A    between atoms: _388  and  _389
REMARK  159  A    between atoms: _388  and  _391
REMARK  160  A    between atoms: _394  and  _396
REMARK  161  A    between atoms: _396  and  _397
REMARK  162  A    between atoms: _399  and  _401
REMARK  163  A    between atoms: _401  and  _402
REMARK  164  A    between atoms: _401  and  _404
REMARK  165  A    between atoms: _404  and  _405
REMARK  166  A    between atoms: _405  and  _406
REMARK  167  A    between atoms: _406  and  _407
REMARK  168  A    between atoms: _416  and  _418
REMARK  169  A    between atoms: _418  and  _419
REMARK  170  A    between atoms: _418  and  _421
REMARK  171  A    between atoms: _421  and  _422
REMARK  172  A    between atoms: _424  and  _426
REMARK  173  A    between atoms: _426  and  _427
REMARK  174  A    between atoms: _426  and  _429
REMARK  175  A    between atoms: _429  and  _430
REMARK  176  A    between atoms: _433  and  _435
REMARK  177  A    between atoms: _435  and  _436
REMARK  178  A    between atoms: _435  and  _438
REMARK  179  A    between atoms: _438  and  _439
REMARK  180  A    between atoms: _444  and  _445
REMARK  181  A    between atoms: _447  and  _449
REMARK  182  A    between atoms: _449  and  _450
REMARK  183  A    between atoms: _449  and  _452
REMARK  184  A    between atoms: _452  and  _453
REMARK  185  A    between atoms: _456  and  _458
REMARK  186  A    between atoms: _458  and  _459
REMARK  187  A    between atoms: _462  and  _464
REMARK  188  A    between atoms: _464  and  _465
REMARK  189  A    between atoms: _464  and  _467
REMARK  190  A    between atoms: _467  and  _468
REMARK  191  A    between atoms: _471  and  _473
REMARK  192  A    between atoms: _473  and  _474
REMARK  193  A    between atoms: _473  and  _476
REMARK  194  A    between atoms: _476  and  _477
REMARK  195  A    between atoms: _481  and  _482
REMARK  196  A    between atoms: _487  and  _489
REMARK  197  A    between atoms: _489  and  _490
REMARK  198  A    between atoms: _489  and  _492
REMARK  199  A    between atoms: _492  and  _493
REMARK  200  A    between atoms: _493  and  _494
REMARK  201  A    between atoms: _497  and  _499
REMARK  202  A    between atoms: _499  and  _500
REMARK  203  A    between atoms: _499  and  _502
REMARK  204  A    between atoms: _502  and  _503
REMARK  205  A    between atoms: _506  and  _508
REMARK  206  A    between atoms: _508  and  _509
REMARK  207  A    between atoms: _508  and  _511
REMARK  208  A    between atoms: _511  and  _512
REMARK  209  A    between atoms: _517  and  _519
REMARK  210  A    between atoms: _519  and  _520
REMARK  211  A    between atoms: _519  and  _522
REMARK  212  A    between atoms: _522  and  _523
REMARK  213  A    between atoms: _523  and  _524
REMARK  214  A    between atoms: _524  and  _525
REMARK  215  A    between atoms: _525  and  _526
REMARK  216  A    between atoms: _530  and  _532
REMARK  217  A    between atoms: _532  and  _533
REMARK  218  A    between atoms: _532  and  _535
REMARK  219  A    between atoms: _535  and  _536
REMARK                            x       y       z     vdW  Elec       q    Type
REMARK                         _______ _______ _______ _____ _____    ______ ____
ROOT
ATOM      1  O   HOH     1      21.388 -17.730  19.467  0.00  0.00    +0.000 OA
ENDROOT
TORSDOF 0
REMARK  Name = ../refined-set-2016/2zz2/2zz2_pocket.pdb
REMARK  219 active torsions:
REMARK  status: ('A' for Active; 'I' for Inactive)
REMARK    1  A    between atoms: _1  and  _3
REMARK    2  A    between atoms: _3  and  _4
REMARK    3  A    between atoms: _3  and  _6
REMARK    4  A    between atoms: _6  and  _7
REMARK    5  A    between atoms: _10  and  _12
REMARK    6  A    between atoms: _12  and  _13
REMARK    7  A    between atoms: _12  and  _15
REMARK    8  A    between atoms: _15  and  _16
REMARK    9  A    between atoms: _19  and  _21
REMARK   10  A    between atoms: _21  and  _22
REMARK   11  A    between atoms: _25  and  _27
REMARK   12  A    between atoms: _27  and  _28
REMARK   13  A    between atoms: _27  and  _30
REMARK   14  A    between atoms: _30  and  _31
REMARK   15  A    between atoms: _31  and  _32
REMARK   16  A    between atoms: _34  and  _36
REMARK   17  A    between atoms: _36  and  _37
REMARK   18  A    between atoms: _36  and  _39
REMARK   19  A    between atoms: _39  and  _40
REMARK   20  A    between atoms: _43  and  _45
REMARK   21  A    between atoms: _45  and  _46
REMARK   22  A    between atoms: _45  and  _48
REMARK   23  A    between atoms: _48  and  _49
REMARK   24  A    between atoms: _49  and  _50
REMARK   25  A    between atoms: _50  and  _51
REMARK   26  A    between atoms: _51  and  _52
REMARK   27  A    between atoms: _56  and  _58
REMARK   28  A    between atoms: _58  and  _59
REMARK   29  A    between atoms: _58  and  _61
REMARK   30  A    between atoms: _61  and  _62
REMARK   31  A    between atoms: _65  and  _67
REMARK   32  A    between atoms: _67  and  _68
REMARK   33  A    between atoms: _70  and  _72
REMARK   34  A    between atoms: _72  and  _73
REMARK   35  A    between atoms: _72  and  _75
REMARK   36  A    between atoms: _75  and  _76
REMARK   37  A    between atoms: _81  and  _82
REMARK   38  A    between atoms: _85  and  _86
REMARK   39  A    between atoms: _91  and  _93
REMARK   40  A    between atoms: _93  and  _94
REMARK   41  A    between atoms: _93  and  _96
REMARK   42  A    between atoms: _96  and  _97
REMARK   43  A    between atoms: _100  and  _102
REMARK   44  A    between atoms: _102  and  _103
REMARK   45  A    between atoms: _102  and  _105
REMARK   46  A    between atoms: _105  and  _106
REMARK   47  A    between atoms: _109  and  _111
REMARK   48  A    between atoms: _111  and  _112
REMARK   49  A    between atoms: _115  and  _117
REMARK   50  A    between atoms: _117  and  _118
REMARK   51  A    between atoms: _117  and  _120
REMARK   52  A    between atoms: _120  and  _121
REMARK   53  A    between atoms: _124  and  _126
REMARK   54  A    between atoms: _126  and  _127
REMARK   55  A    between atoms: _126  and  _129
REMARK   56  A    between atoms: _129  and  _130
REMARK   57  A    between atoms: _136  and  _138
REMARK   58  A    between atoms: _138  and  _139
REMARK   59  A    between atoms: _142  and  _144
REMARK   60  A    between atoms: _144  and  _145
REMARK   61  A    between atoms: _144  and  _147
REMARK   62  A    between atoms: _147  and  _148
REMARK   63  A    between atoms: _151  and  _153
REMARK   64  A    between atoms: _153  and  _154
REMARK   65  A    between atoms: _153  and  _156
REMARK   66  A    between atoms: _159  and  _161
REMARK   67  A    between atoms: _161  and  _162
REMARK   68  A    between atoms: _161  and  _164
REMARK   69  A    between atoms: _164  and  _165
REMARK   70  A    between atoms: _170  and  _172
REMARK   71  A    between atoms: _172  and  _173
REMARK   72  A    between atoms: _172  and  _175
REMARK   73  A    between atoms: _175  and  _176
REMARK   74  A    between atoms: _182  and  _184
REMARK   75  A    between atoms: _184  and  _185
REMARK   76  A    between atoms: _184  and  _187
REMARK   77  A    between atoms: _187  and  _188
REMARK   78  A    between atoms: _191  and  _193
REMARK   79  A    between atoms: _193  and  _194
REMARK   80  A    between atoms: _193  and  _196
REMARK   81  A    between atoms: _196  and  _197
REMARK   82  A    between atoms: _200  and  _202
REMARK   83  A    between atoms: _202  and  _203
REMARK   84  A    between atoms: _202  and  _205
REMARK   85  A    between atoms: _205  and  _206
REMARK   86  A    between atoms: _206  and  _207
REMARK   87  A    between atoms: _210  and  _212
REMARK   88  A    between atoms: _212  and  _213
REMARK   89  A    between atoms: _212  and  _215
REMARK   90  A    between atoms: _215  and  _216
REMARK   91  A    between atoms: _216  and  _217
REMARK   92  A    between atoms: _219  and  _221
REMARK   93  A    between atoms: _221  and  _222
REMARK   94  A    between atoms: _221  and  _224
REMARK   95  A    between atoms: _224  and  _225
REMARK   96  A    between atoms: _227  and  _229
REMARK   97  A    between atoms: _229  and  _230
REMARK   98  A    between atoms: _229  and  _232
REMARK   99  A    between atoms: _232  and  _233
REMARK  100  A    between atoms: _238  and  _240
REMARK  101  A    between atoms: _240  and  _241
REMARK  102  A    between atoms: _244  and  _246
REMARK  103  A    between atoms: _246  and  _247
REMARK  104  A    between atoms: _246  and  _249
REMARK  105  A    between atoms: _249  and  _250
REMARK  106  A    between atoms: _253  and  _255
REMARK  107  A    between atoms: _255  and  _256
REMARK  108  A    between atoms: _255  and  _258
REMARK  109  A    between atoms: _261  and  _263
REMARK  110  A    between atoms: _263  and  _264
REMARK  111  A    between atoms: _267  and  _268
REMARK  112  A    between atoms: _273  and  _275
REMARK  113  A    between atoms: _275  and  _276
REMARK  114  A    between atoms: _275  and  _278
REMARK  115  A    between atoms: _278  and  _279
REMARK  116  A    between atoms: _281  and  _283
REMARK  117  A    between atoms: _283  and  _284
REMARK  118  A    between atoms: _283  and  _286
REMARK  119  A    between atoms: _286  and  _287
REMARK  120  A    between atoms: _290  and  _292
REMARK  121  A    between atoms: _292  and  _293
REMARK  122  A    between atoms: _292  and  _295
REMARK  123  A    between atoms: _295  and  _296
REMARK  124  A    between atoms: _296  and  _297
REMARK  125  A    between atoms: _297  and  _298
REMARK  126  A    between atoms: _307  and  _309
REMARK  127  A    between atoms: _309  and  _310
REMARK  128  A    between atoms: _309  and  _312
REMARK  129  A    between atoms: _312  and  _313
REMARK  130  A    between atoms: _316  and  _318
REMARK  131  A    between atoms: _318  and  _319
REMARK  132  A    between atoms: _318  and  _321
REMARK  133  A    between atoms: _321  and  _322
REMARK  134  A    between atoms: _325  and  _326
REMARK  135  A    between atoms: _331  and  _333
REMARK  136  A    between atoms: _333  and  _334
REMARK  137  A    between atoms: _336  and  _338
REMARK  138  A    between atoms: _338  and  _339
REMARK  139  A    between atoms: _338  and  _341
REMARK  140  A    between atoms: _344  and  _346
REMARK  141  A    between atoms: _346  and  _347
REMARK  142  A    between atoms: _349  and  _351
REMARK  143  A    between atoms: _351  and  _352
REMARK  144  A    between atoms: _355  and  _357
REMARK  145  A    between atoms: _357  and  _358
REMARK  146  A    between atoms: _357  and  _360
REMARK  147  A    between atoms: _360  and  _361
REMARK  148  A    between atoms: _361  and  _362
REMARK  149  A    between atoms: _367  and  _369
REMARK  150  A    between atoms: _369  and  _370
REMARK  151  A    between atoms: _372  and  _374
REMARK  152  A    between atoms: _374  and  _375
REMARK  153  A    between atoms: _377  and  _379
REMARK  154  A    between atoms: _379  and  _380
REMARK  155  A    between atoms: _379  and  _382
REMARK  156  A    between atoms: _382  and  _383
REMARK  157  A    between atoms: _386  and  _388
REMARK  158  A    between atoms: _388  and  _389
REMARK  159  A    between atoms: _388  and  _391
REMARK  160  A    between atoms: _394  and  _396
REMARK  161  A    between atoms: _396  and  _397
REMARK  162  A    between atoms: _399  and  _401
REMARK  163  A    between atoms: _401  and  _402
REMARK  164  A    between atoms: _401  and  _404
REMARK  165  A    between atoms: _404  and  _405
REMARK  166  A    between atoms: _405  and  _406
REMARK  167  A    between atoms: _406  and  _407
REMARK  168  A    between atoms: _416  and  _418
REMARK  169  A    between atoms: _418  and  _419
REMARK  170  A    between atoms: _418  and  _421
REMARK  171  A    between atoms: _421  and  _422
REMARK  172  A    between atoms: _424  and  _426
REMARK  173  A    between atoms: _426  and  _427
REMARK  174  A    between atoms: _426  and  _429
REMARK  175  A    between atoms: _429  and  _430
REMARK  176  A    between atoms: _433  and  _435
REMARK  177  A    between atoms: _435  and  _436
REMARK  178  A    between atoms: _435  and  _438
REMARK  179  A    between atoms: _438  and  _439
REMARK  180  A    between atoms: _444  and  _445
REMARK  181  A    between atoms: _447  and  _449
REMARK  182  A    between atoms: _449  and  _450
REMARK  183  A    between atoms: _449  and  _452
REMARK  184  A    between atoms: _452  and  _453
REMARK  185  A    between atoms: _456  and  _458
REMARK  186  A    between atoms: _458  and  _459
REMARK  187  A    between atoms: _462  and  _464
REMARK  188  A    between atoms: _464  and  _465
REMARK  189  A    between atoms: _464  and  _467
REMARK  190  A    between atoms: _467  and  _468
REMARK  191  A    between atoms: _471  and  _473
REMARK  192  A    between atoms: _473  and  _474
REMARK  193  A    between atoms: _473  and  _476
REMARK  194  A    between atoms: _476  and  _477
REMARK  195  A    between atoms: _481  and  _482
REMARK  196  A    between atoms: _487  and  _489
REMARK  197  A    between atoms: _489  and  _490
REMARK  198  A    between atoms: _489  and  _492
REMARK  199  A    between atoms: _492  and  _493
REMARK  200  A    between atoms: _493  and  _494
REMARK  201  A    between atoms: _497  and  _499
REMARK  202  A    between atoms: _499  and  _500
REMARK  203  A    between atoms: _499  and  _502
REMARK  204  A    between atoms: _502  and  _503
REMARK  205  A    between atoms: _506  and  _508
REMARK  206  A    between atoms: _508  and  _509
REMARK  207  A    between atoms: _508  and  _511
REMARK  208  A    between atoms: _511  and  _512
REMARK  209  A    between atoms: _517  and  _519
REMARK  210  A    between atoms: _519  and  _520
REMARK  211  A    between atoms: _519  and  _522
REMARK  212  A    between atoms: _522  and  _523
REMARK  213  A    between atoms: _523  and  _524
REMARK  214  A    between atoms: _524  and  _525
REMARK  215  A    between atoms: _525  and  _526
REMARK  216  A    between atoms: _530  and  _532
REMARK  217  A    between atoms: _532  and  _533
REMARK  218  A    between atoms: _532  and  _535
REMARK  219  A    between atoms: _535  and  _536
REMARK                            x       y       z     vdW  Elec       q    Type
REMARK                         _______ _______ _______ _____ _____    ______ ____
ROOT
ATOM      1  O   HOH     1      31.545 -12.526  10.755  0.00  0.00    +0.000 OA
ENDROOT
TORSDOF 0
REMARK  Name = ../refined-set-2016/2zz2/2zz2_pocket.pdb
REMARK  219 active torsions:
REMARK  status: ('A' for Active; 'I' for Inactive)
REMARK    1  A    between atoms: _1  and  _3
REMARK    2  A    between atoms: _3  and  _4
REMARK    3  A    between atoms: _3  and  _6
REMARK    4  A    between atoms: _6  and  _7
REMARK    5  A    between atoms: _10  and  _12
REMARK    6  A    between atoms: _12  and  _13
REMARK    7  A    between atoms: _12  and  _15
REMARK    8  A    between atoms: _15  and  _16
REMARK    9  A    between atoms: _19  and  _21
REMARK   10  A    between atoms: _21  and  _22
REMARK   11  A    between atoms: _25  and  _27
REMARK   12  A    between atoms: _27  and  _28
REMARK   13  A    between atoms: _27  and  _30
REMARK   14  A    between atoms: _30  and  _31
REMARK   15  A    between atoms: _31  and  _32
REMARK   16  A    between atoms: _34  and  _36
REMARK   17  A    between atoms: _36  and  _37
REMARK   18  A    between atoms: _36  and  _39
REMARK   19  A    between atoms: _39  and  _40
REMARK   20  A    between atoms: _43  and  _45
REMARK   21  A    between atoms: _45  and  _46
REMARK   22  A    between atoms: _45  and  _48
REMARK   23  A    between atoms: _48  and  _49
REMARK   24  A    between atoms: _49  and  _50
REMARK   25  A    between atoms: _50  and  _51
REMARK   26  A    between atoms: _51  and  _52
REMARK   27  A    between atoms: _56  and  _58
REMARK   28  A    between atoms: _58  and  _59
REMARK   29  A    between atoms: _58  and  _61
REMARK   30  A    between atoms: _61  and  _62
REMARK   31  A    between atoms: _65  and  _67
REMARK   32  A    between atoms: _67  and  _68
REMARK   33  A    between atoms: _70  and  _72
REMARK   34  A    between atoms: _72  and  _73
REMARK   35  A    between atoms: _72  and  _75
REMARK   36  A    between atoms: _75  and  _76
REMARK   37  A    between atoms: _81  and  _82
REMARK   38  A    between atoms: _85  and  _86
REMARK   39  A    between atoms: _91  and  _93
REMARK   40  A    between atoms: _93  and  _94
REMARK   41  A    between atoms: _93  and  _96
REMARK   42  A    between atoms: _96  and  _97
REMARK   43  A    between atoms: _100  and  _102
REMARK   44  A    between atoms: _102  and  _103
REMARK   45  A    between atoms: _102  and  _105
REMARK   46  A    between atoms: _105  and  _106
REMARK   47  A    between atoms: _109  and  _111
REMARK   48  A    between atoms: _111  and  _112
REMARK   49  A    between atoms: _115  and  _117
REMARK   50  A    between atoms: _117  and  _118
REMARK   51  A    between atoms: _117  and  _120
REMARK   52  A    between atoms: _120  and  _121
REMARK   53  A    between atoms: _124  and  _126
REMARK   54  A    between atoms: _126  and  _127
REMARK   55  A    between atoms: _126  and  _129
REMARK   56  A    between atoms: _129  and  _130
REMARK   57  A    between atoms: _136  and  _138
REMARK   58  A    between atoms: _138  and  _139
REMARK   59  A    between atoms: _142  and  _144
REMARK   60  A    between atoms: _144  and  _145
REMARK   61  A    between atoms: _144  and  _147
REMARK   62  A    between atoms: _147  and  _148
REMARK   63  A    between atoms: _151  and  _153
REMARK   64  A    between atoms: _153  and  _154
REMARK   65  A    between atoms: _153  and  _156
REMARK   66  A    between atoms: _159  and  _161
REMARK   67  A    between atoms: _161  and  _162
REMARK   68  A    between atoms: _161  and  _164
REMARK   69  A    between atoms: _164  and  _165
REMARK   70  A    between atoms: _170  and  _172
REMARK   71  A    between atoms: _172  and  _173
REMARK   72  A    between atoms: _172  and  _175
REMARK   73  A    between atoms: _175  and  _176
REMARK   74  A    between atoms: _182  and  _184
REMARK   75  A    between atoms: _184  and  _185
REMARK   76  A    between atoms: _184  and  _187
REMARK   77  A    between atoms: _187  and  _188
REMARK   78  A    between atoms: _191  and  _193
REMARK   79  A    between atoms: _193  and  _194
REMARK   80  A    between atoms: _193  and  _196
REMARK   81  A    between atoms: _196  and  _197
REMARK   82  A    between atoms: _200  and  _202
REMARK   83  A    between atoms: _202  and  _203
REMARK   84  A    between atoms: _202  and  _205
REMARK   85  A    between atoms: _205  and  _206
REMARK   86  A    between atoms: _206  and  _207
REMARK   87  A    between atoms: _210  and  _212
REMARK   88  A    between atoms: _212  and  _213
REMARK   89  A    between atoms: _212  and  _215
REMARK   90  A    between atoms: _215  and  _216
REMARK   91  A    between atoms: _216  and  _217
REMARK   92  A    between atoms: _219  and  _221
REMARK   93  A    between atoms: _221  and  _222
REMARK   94  A    between atoms: _221  and  _224
REMARK   95  A    between atoms: _224  and  _225
REMARK   96  A    between atoms: _227  and  _229
REMARK   97  A    between atoms: _229  and  _230
REMARK   98  A    between atoms: _229  and  _232
REMARK   99  A    between atoms: _232  and  _233
REMARK  100  A    between atoms: _238  and  _240
REMARK  101  A    between atoms: _240  and  _241
REMARK  102  A    between atoms: _244  and  _246
REMARK  103  A    between atoms: _246  and  _247
REMARK  104  A    between atoms: _246  and  _249
REMARK  105  A    between atoms: _249  and  _250
REMARK  106  A    between atoms: _253  and  _255
REMARK  107  A    between atoms: _255  and  _256
REMARK  108  A    between atoms: _255  and  _258
REMARK  109  A    between atoms: _261  and  _263
REMARK  110  A    between atoms: _263  and  _264
REMARK  111  A    between atoms: _267  and  _268
REMARK  112  A    between atoms: _273  and  _275
REMARK  113  A    between atoms: _275  and  _276
REMARK  114  A    between atoms: _275  and  _278
REMARK  115  A    between atoms: _278  and  _279
REMARK  116  A    between atoms: _281  and  _283
REMARK  117  A    between atoms: _283  and  _284
REMARK  118  A    between atoms: _283  and  _286
REMARK  119  A    between atoms: _286  and  _287
REMARK  120  A    between atoms: _290  and  _292
REMARK  121  A    between atoms: _292  and  _293
REMARK  122  A    between atoms: _292  and  _295
REMARK  123  A    between atoms: _295  and  _296
REMARK  124  A    between atoms: _296  and  _297
REMARK  125  A    between atoms: _297  and  _298
REMARK  126  A    between atoms: _307  and  _309
REMARK  127  A    between atoms: _309  and  _310
REMARK  128  A    between atoms: _309  and  _312
REMARK  129  A    between atoms: _312  and  _313
REMARK  130  A    between atoms: _316  and  _318
REMARK  131  A    between atoms: _318  and  _319
REMARK  132  A    between atoms: _318  and  _321
REMARK  133  A    between atoms: _321  and  _322
REMARK  134  A    between atoms: _325  and  _326
REMARK  135  A    between atoms: _331  and  _333
REMARK  136  A    between atoms: _333  and  _334
REMARK  137  A    between atoms: _336  and  _338
REMARK  138  A    between atoms: _338  and  _339
REMARK  139  A    between atoms: _338  and  _341
REMARK  140  A    between atoms: _344  and  _346
REMARK  141  A    between atoms: _346  and  _347
REMARK  142  A    between atoms: _349  and  _351
REMARK  143  A    between atoms: _351  and  _352
REMARK  144  A    between atoms: _355  and  _357
REMARK  145  A    between atoms: _357  and  _358
REMARK  146  A    between atoms: _357  and  _360
REMARK  147  A    between atoms: _360  and  _361
REMARK  148  A    between atoms: _361  and  _362
REMARK  149  A    between atoms: _367  and  _369
REMARK  150  A    between atoms: _369  and  _370
REMARK  151  A    between atoms: _372  and  _374
REMARK  152  A    between atoms: _374  and  _375
REMARK  153  A    between atoms: _377  and  _379
REMARK  154  A    between atoms: _379  and  _380
REMARK  155  A    between atoms: _379  and  _382
REMARK  156  A    between atoms: _382  and  _383
REMARK  157  A    between atoms: _386  and  _388
REMARK  158  A    between atoms: _388  and  _389
REMARK  159  A    between atoms: _388  and  _391
REMARK  160  A    between atoms: _394  and  _396
REMARK  161  A    between atoms: _396  and  _397
REMARK  162  A    between atoms: _399  and  _401
REMARK  163  A    between atoms: _401  and  _402
REMARK  164  A    between atoms: _401  and  _404
REMARK  165  A    between atoms: _404  and  _405
REMARK  166  A    between atoms: _405  and  _406
REMARK  167  A    between atoms: _406  and  _407
REMARK  168  A    between atoms: _416  and  _418
REMARK  169  A    between atoms: _418  and  _419
REMARK  170  A    between atoms: _418  and  _421
REMARK  171  A    between atoms: _421  and  _422
REMARK  172  A    between atoms: _424  and  _426
REMARK  173  A    between atoms: _426  and  _427
REMARK  174  A    between atoms: _426  and  _429
REMARK  175  A    between atoms: _429  and  _430
REMARK  176  A    between atoms: _433  and  _435
REMARK  177  A    between atoms: _435  and  _436
REMARK  178  A    between atoms: _435  and  _438
REMARK  179  A    between atoms: _438  and  _439
REMARK  180  A    between atoms: _444  and  _445
REMARK  181  A    between atoms: _447  and  _449
REMARK  182  A    between atoms: _449  and  _450
REMARK  183  A    between atoms: _449  and  _452
REMARK  184  A    between atoms: _452  and  _453
REMARK  185  A    between atoms: _456  and  _458
REMARK  186  A    between atoms: _458  and  _459
REMARK  187  A    between atoms: _462  and  _464
REMARK  188  A    between atoms: _464  and  _465
REMARK  189  A    between atoms: _464  and  _467
REMARK  190  A    between atoms: _467  and  _468
REMARK  191  A    between atoms: _471  and  _473
REMARK  192  A    between atoms: _473  and  _474
REMARK  193  A    between atoms: _473  and  _476
REMARK  194  A    between atoms: _476  and  _477
REMARK  195  A    between atoms: _481  and  _482
REMARK  196  A    between atoms: _487  and  _489
REMARK  197  A    between atoms: _489  and  _490
REMARK  198  A    between atoms: _489  and  _492
REMARK  199  A    between atoms: _492  and  _493
REMARK  200  A    between atoms: _493  and  _494
REMARK  201  A    between atoms: _497  and  _499
REMARK  202  A    between atoms: _499  and  _500
REMARK  203  A    between atoms: _499  and  _502
REMARK  204  A    between atoms: _502  and  _503
REMARK  205  A    between atoms: _506  and  _508
REMARK  206  A    between atoms: _508  and  _509
REMARK  207  A    between atoms: _508  and  _511
REMARK  208  A    between atoms: _511  and  _512
REMARK  209  A    between atoms: _517  and  _519
REMARK  210  A    between atoms: _519  and  _520
REMARK  211  A    between atoms: _519  and  _522
REMARK  212  A    between atoms: _522  and  _523
REMARK  213  A    between atoms: _523  and  _524
REMARK  214  A    between atoms: _524  and  _525
REMARK  215  A    between atoms: _525  and  _526
REMARK  216  A    between atoms: _530  and  _532
REMARK  217  A    between atoms: _532  and  _533
REMARK  218  A    between atoms: _532  and  _535
REMARK  219  A    between atoms: _535  and  _536
REMARK                            x       y       z     vdW  Elec       q    Type
REMARK                         _______ _______ _______ _____ _____    ______ ____
ROOT
ATOM      1  O   HOH     1      23.289  -8.341   8.249  0.00  0.00    +0.000 OA
ENDROOT
TORSDOF 0
REMARK  Name = ../refined-set-2016/2zz2/2zz2_pocket.pdb
REMARK  219 active torsions:
REMARK  status: ('A' for Active; 'I' for Inactive)
REMARK    1  A    between atoms: _1  and  _3
REMARK    2  A    between atoms: _3  and  _4
REMARK    3  A    between atoms: _3  and  _6
REMARK    4  A    between atoms: _6  and  _7
REMARK    5  A    between atoms: _10  and  _12
REMARK    6  A    between atoms: _12  and  _13
REMARK    7  A    between atoms: _12  and  _15
REMARK    8  A    between atoms: _15  and  _16
REMARK    9  A    between atoms: _19  and  _21
REMARK   10  A    between atoms: _21  and  _22
REMARK   11  A    between atoms: _25  and  _27
REMARK   12  A    between atoms: _27  and  _28
REMARK   13  A    between atoms: _27  and  _30
REMARK   14  A    between atoms: _30  and  _31
REMARK   15  A    between atoms: _31  and  _32
REMARK   16  A    between atoms: _34  and  _36
REMARK   17  A    between atoms: _36  and  _37
REMARK   18  A    between atoms: _36  and  _39
REMARK   19  A    between atoms: _39  and  _40
REMARK   20  A    between atoms: _43  and  _45
REMARK   21  A    between atoms: _45  and  _46
REMARK   22  A    between atoms: _45  and  _48
REMARK   23  A    between atoms: _48  and  _49
REMARK   24  A    between atoms: _49  and  _50
REMARK   25  A    between atoms: _50  and  _51
REMARK   26  A    between atoms: _51  and  _52
REMARK   27  A    between atoms: _56  and  _58
REMARK   28  A    between atoms: _58  and  _59
REMARK   29  A    between atoms: _58  and  _61
REMARK   30  A    between atoms: _61  and  _62
REMARK   31  A    between atoms: _65  and  _67
REMARK   32  A    between atoms: _67  and  _68
REMARK   33  A    between atoms: _70  and  _72
REMARK   34  A    between atoms: _72  and  _73
REMARK   35  A    between atoms: _72  and  _75
REMARK   36  A    between atoms: _75  and  _76
REMARK   37  A    between atoms: _81  and  _82
REMARK   38  A    between atoms: _85  and  _86
REMARK   39  A    between atoms: _91  and  _93
REMARK   40  A    between atoms: _93  and  _94
REMARK   41  A    between atoms: _93  and  _96
REMARK   42  A    between atoms: _96  and  _97
REMARK   43  A    between atoms: _100  and  _102
REMARK   44  A    between atoms: _102  and  _103
REMARK   45  A    between atoms: _102  and  _105
REMARK   46  A    between atoms: _105  and  _106
REMARK   47  A    between atoms: _109  and  _111
REMARK   48  A    between atoms: _111  and  _112
REMARK   49  A    between atoms: _115  and  _117
REMARK   50  A    between atoms: _117  and  _118
REMARK   51  A    between atoms: _117  and  _120
REMARK   52  A    between atoms: _120  and  _121
REMARK   53  A    between atoms: _124  and  _126
REMARK   54  A    between atoms: _126  and  _127
REMARK   55  A    between atoms: _126  and  _129
REMARK   56  A    between atoms: _129  and  _130
REMARK   57  A    between atoms: _136  and  _138
REMARK   58  A    between atoms: _138  and  _139
REMARK   59  A    between atoms: _142  and  _144
REMARK   60  A    between atoms: _144  and  _145
REMARK   61  A    between atoms: _144  and  _147
REMARK   62  A    between atoms: _147  and  _148
REMARK   63  A    between atoms: _151  and  _153
REMARK   64  A    between atoms: _153  and  _154
REMARK   65  A    between atoms: _153  and  _156
REMARK   66  A    between atoms: _159  and  _161
REMARK   67  A    between atoms: _161  and  _162
REMARK   68  A    between atoms: _161  and  _164
REMARK   69  A    between atoms: _164  and  _165
REMARK   70  A    between atoms: _170  and  _172
REMARK   71  A    between atoms: _172  and  _173
REMARK   72  A    between atoms: _172  and  _175
REMARK   73  A    between atoms: _175  and  _176
REMARK   74  A    between atoms: _182  and  _184
REMARK   75  A    between atoms: _184  and  _185
REMARK   76  A    between atoms: _184  and  _187
REMARK   77  A    between atoms: _187  and  _188
REMARK   78  A    between atoms: _191  and  _193
REMARK   79  A    between atoms: _193  and  _194
REMARK   80  A    between atoms: _193  and  _196
REMARK   81  A    between atoms: _196  and  _197
REMARK   82  A    between atoms: _200  and  _202
REMARK   83  A    between atoms: _202  and  _203
REMARK   84  A    between atoms: _202  and  _205
REMARK   85  A    between atoms: _205  and  _206
REMARK   86  A    between atoms: _206  and  _207
REMARK   87  A    between atoms: _210  and  _212
REMARK   88  A    between atoms: _212  and  _213
REMARK   89  A    between atoms: _212  and  _215
REMARK   90  A    between atoms: _215  and  _216
REMARK   91  A    between atoms: _216  and  _217
REMARK   92  A    between atoms: _219  and  _221
REMARK   93  A    between atoms: _221  and  _222
REMARK   94  A    between atoms: _221  and  _224
REMARK   95  A    between atoms: _224  and  _225
REMARK   96  A    between atoms: _227  and  _229
REMARK   97  A    between atoms: _229  and  _230
REMARK   98  A    between atoms: _229  and  _232
REMARK   99  A    between atoms: _232  and  _233
REMARK  100  A    between atoms: _238  and  _240
REMARK  101  A    between atoms: _240  and  _241
REMARK  102  A    between atoms: _244  and  _246
REMARK  103  A    between atoms: _246  and  _247
REMARK  104  A    between atoms: _246  and  _249
REMARK  105  A    between atoms: _249  and  _250
REMARK  106  A    between atoms: _253  and  _255
REMARK  107  A    between atoms: _255  and  _256
REMARK  108  A    between atoms: _255  and  _258
REMARK  109  A    between atoms: _261  and  _263
REMARK  110  A    between atoms: _263  and  _264
REMARK  111  A    between atoms: _267  and  _268
REMARK  112  A    between atoms: _273  and  _275
REMARK  113  A    between atoms: _275  and  _276
REMARK  114  A    between atoms: _275  and  _278
REMARK  115  A    between atoms: _278  and  _279
REMARK  116  A    between atoms: _281  and  _283
REMARK  117  A    between atoms: _283  and  _284
REMARK  118  A    between atoms: _283  and  _286
REMARK  119  A    between atoms: _286  and  _287
REMARK  120  A    between atoms: _290  and  _292
REMARK  121  A    between atoms: _292  and  _293
REMARK  122  A    between atoms: _292  and  _295
REMARK  123  A    between atoms: _295  and  _296
REMARK  124  A    between atoms: _296  and  _297
REMARK  125  A    between atoms: _297  and  _298
REMARK  126  A    between atoms: _307  and  _309
REMARK  127  A    between atoms: _309  and  _310
REMARK  128  A    between atoms: _309  and  _312
REMARK  129  A    between atoms: _312  and  _313
REMARK  130  A    between atoms: _316  and  _318
REMARK  131  A    between atoms: _318  and  _319
REMARK  132  A    between atoms: _318  and  _321
REMARK  133  A    between atoms: _321  and  _322
REMARK  134  A    between atoms: _325  and  _326
REMARK  135  A    between atoms: _331  and  _333
REMARK  136  A    between atoms: _333  and  _334
REMARK  137  A    between atoms: _336  and  _338
REMARK  138  A    between atoms: _338  and  _339
REMARK  139  A    between atoms: _338  and  _341
REMARK  140  A    between atoms: _344  and  _346
REMARK  141  A    between atoms: _346  and  _347
REMARK  142  A    between atoms: _349  and  _351
REMARK  143  A    between atoms: _351  and  _352
REMARK  144  A    between atoms: _355  and  _357
REMARK  145  A    between atoms: _357  and  _358
REMARK  146  A    between atoms: _357  and  _360
REMARK  147  A    between atoms: _360  and  _361
REMARK  148  A    between atoms: _361  and  _362
REMARK  149  A    between atoms: _367  and  _369
REMARK  150  A    between atoms: _369  and  _370
REMARK  151  A    between atoms: _372  and  _374
REMARK  152  A    between atoms: _374  and  _375
REMARK  153  A    between atoms: _377  and  _379
REMARK  154  A    between atoms: _379  and  _380
REMARK  155  A    between atoms: _379  and  _382
REMARK  156  A    between atoms: _382  and  _383
REMARK  157  A    between atoms: _386  and  _388
REMARK  158  A    between atoms: _388  and  _389
REMARK  159  A    between atoms: _388  and  _391
REMARK  160  A    between atoms: _394  and  _396
REMARK  161  A    between atoms: _396  and  _397
REMARK  162  A    between atoms: _399  and  _401
REMARK  163  A    between atoms: _401  and  _402
REMARK  164  A    between atoms: _401  and  _404
REMARK  165  A    between atoms: _404  and  _405
REMARK  166  A    between atoms: _405  and  _406
REMARK  167  A    between atoms: _406  and  _407
REMARK  168  A    between atoms: _416  and  _418
REMARK  169  A    between atoms: _418  and  _419
REMARK  170  A    between atoms: _418  and  _421
REMARK  171  A    between atoms: _421  and  _422
REMARK  172  A    between atoms: _424  and  _426
REMARK  173  A    between atoms: _426  and  _427
REMARK  174  A    between atoms: _426  and  _429
REMARK  175  A    between atoms: _429  and  _430
REMARK  176  A    between atoms: _433  and  _435
REMARK  177  A    between atoms: _435  and  _436
REMARK  178  A    between atoms: _435  and  _438
REMARK  179  A    between atoms: _438  and  _439
REMARK  180  A    between atoms: _444  and  _445
REMARK  181  A    between atoms: _447  and  _449
REMARK  182  A    between atoms: _449  and  _450
REMARK  183  A    between atoms: _449  and  _452
REMARK  184  A    between atoms: _452  and  _453
REMARK  185  A    between atoms: _456  and  _458
REMARK  186  A    between atoms: _458  and  _459
REMARK  187  A    between atoms: _462  and  _464
REMARK  188  A    between atoms: _464  and  _465
REMARK  189  A    between atoms: _464  and  _467
REMARK  190  A    between atoms: _467  and  _468
REMARK  191  A    between atoms: _471  and  _473
REMARK  192  A    between atoms: _473  and  _474
REMARK  193  A    between atoms: _473  and  _476
REMARK  194  A    between atoms: _476  and  _477
REMARK  195  A    between atoms: _481  and  _482
REMARK  196  A    between atoms: _487  and  _489
REMARK  197  A    between atoms: _489  and  _490
REMARK  198  A    between atoms: _489  and  _492
REMARK  199  A    between atoms: _492  and  _493
REMARK  200  A    between atoms: _493  and  _494
REMARK  201  A    between atoms: _497  and  _499
REMARK  202  A    between atoms: _499  and  _500
REMARK  203  A    between atoms: _499  and  _502
REMARK  204  A    between atoms: _502  and  _503
REMARK  205  A    between atoms: _506  and  _508
REMARK  206  A    between atoms: _508  and  _509
REMARK  207  A    between atoms: _508  and  _511
REMARK  208  A    between atoms: _511  and  _512
REMARK  209  A    between atoms: _517  and  _519
REMARK  210  A    between atoms: _519  and  _520
REMARK  211  A    between atoms: _519  and  _522
REMARK  212  A    between atoms: _522  and  _523
REMARK  213  A    between atoms: _523  and  _524
REMARK  214  A    between atoms: _524  and  _525
REMARK  215  A    between atoms: _525  and  _526
REMARK  216  A    between atoms: _530  and  _532
REMARK  217  A    between atoms: _532  and  _533
REMARK  218  A    between atoms: _532  and  _535
REMARK  219  A    between atoms: _535  and  _536
REMARK                            x       y       z     vdW  Elec       q    Type
REMARK                         _______ _______ _______ _____ _____    ______ ____
ROOT
ATOM      1  O   HOH     1      25.101 -13.446   0.877  0.00  0.00    +0.000 OA
ENDROOT
TORSDOF 0
REMARK  Name = ../refined-set-2016/2zz2/2zz2_pocket.pdb
REMARK  219 active torsions:
REMARK  status: ('A' for Active; 'I' for Inactive)
REMARK    1  A    between atoms: _1  and  _3
REMARK    2  A    between atoms: _3  and  _4
REMARK    3  A    between atoms: _3  and  _6
REMARK    4  A    between atoms: _6  and  _7
REMARK    5  A    between atoms: _10  and  _12
REMARK    6  A    between atoms: _12  and  _13
REMARK    7  A    between atoms: _12  and  _15
REMARK    8  A    between atoms: _15  and  _16
REMARK    9  A    between atoms: _19  and  _21
REMARK   10  A    between atoms: _21  and  _22
REMARK   11  A    between atoms: _25  and  _27
REMARK   12  A    between atoms: _27  and  _28
REMARK   13  A    between atoms: _27  and  _30
REMARK   14  A    between atoms: _30  and  _31
REMARK   15  A    between atoms: _31  and  _32
REMARK   16  A    between atoms: _34  and  _36
REMARK   17  A    between atoms: _36  and  _37
REMARK   18  A    between atoms: _36  and  _39
REMARK   19  A    between atoms: _39  and  _40
REMARK   20  A    between atoms: _43  and  _45
REMARK   21  A    between atoms: _45  and  _46
REMARK   22  A    between atoms: _45  and  _48
REMARK   23  A    between atoms: _48  and  _49
REMARK   24  A    between atoms: _49  and  _50
REMARK   25  A    between atoms: _50  and  _51
REMARK   26  A    between atoms: _51  and  _52
REMARK   27  A    between atoms: _56  and  _58
REMARK   28  A    between atoms: _58  and  _59
REMARK   29  A    between atoms: _58  and  _61
REMARK   30  A    between atoms: _61  and  _62
REMARK   31  A    between atoms: _65  and  _67
REMARK   32  A    between atoms: _67  and  _68
REMARK   33  A    between atoms: _70  and  _72
REMARK   34  A    between atoms: _72  and  _73
REMARK   35  A    between atoms: _72  and  _75
REMARK   36  A    between atoms: _75  and  _76
REMARK   37  A    between atoms: _81  and  _82
REMARK   38  A    between atoms: _85  and  _86
REMARK   39  A    between atoms: _91  and  _93
REMARK   40  A    between atoms: _93  and  _94
REMARK   41  A    between atoms: _93  and  _96
REMARK   42  A    between atoms: _96  and  _97
REMARK   43  A    between atoms: _100  and  _102
REMARK   44  A    between atoms: _102  and  _103
REMARK   45  A    between atoms: _102  and  _105
REMARK   46  A    between atoms: _105  and  _106
REMARK   47  A    between atoms: _109  and  _111
REMARK   48  A    between atoms: _111  and  _112
REMARK   49  A    between atoms: _115  and  _117
REMARK   50  A    between atoms: _117  and  _118
REMARK   51  A    between atoms: _117  and  _120
REMARK   52  A    between atoms: _120  and  _121
REMARK   53  A    between atoms: _124  and  _126
REMARK   54  A    between atoms: _126  and  _127
REMARK   55  A    between atoms: _126  and  _129
REMARK   56  A    between atoms: _129  and  _130
REMARK   57  A    between atoms: _136  and  _138
REMARK   58  A    between atoms: _138  and  _139
REMARK   59  A    between atoms: _142  and  _144
REMARK   60  A    between atoms: _144  and  _145
REMARK   61  A    between atoms: _144  and  _147
REMARK   62  A    between atoms: _147  and  _148
REMARK   63  A    between atoms: _151  and  _153
REMARK   64  A    between atoms: _153  and  _154
REMARK   65  A    between atoms: _153  and  _156
REMARK   66  A    between atoms: _159  and  _161
REMARK   67  A    between atoms: _161  and  _162
REMARK   68  A    between atoms: _161  and  _164
REMARK   69  A    between atoms: _164  and  _165
REMARK   70  A    between atoms: _170  and  _172
REMARK   71  A    between atoms: _172  and  _173
REMARK   72  A    between atoms: _172  and  _175
REMARK   73  A    between atoms: _175  and  _176
REMARK   74  A    between atoms: _182  and  _184
REMARK   75  A    between atoms: _184  and  _185
REMARK   76  A    between atoms: _184  and  _187
REMARK   77  A    between atoms: _187  and  _188
REMARK   78  A    between atoms: _191  and  _193
REMARK   79  A    between atoms: _193  and  _194
REMARK   80  A    between atoms: _193  and  _196
REMARK   81  A    between atoms: _196  and  _197
REMARK   82  A    between atoms: _200  and  _202
REMARK   83  A    between atoms: _202  and  _203
REMARK   84  A    between atoms: _202  and  _205
REMARK   85  A    between atoms: _205  and  _206
REMARK   86  A    between atoms: _206  and  _207
REMARK   87  A    between atoms: _210  and  _212
REMARK   88  A    between atoms: _212  and  _213
REMARK   89  A    between atoms: _212  and  _215
REMARK   90  A    between atoms: _215  and  _216
REMARK   91  A    between atoms: _216  and  _217
REMARK   92  A    between atoms: _219  and  _221
REMARK   93  A    between atoms: _221  and  _222
REMARK   94  A    between atoms: _221  and  _224
REMARK   95  A    between atoms: _224  and  _225
REMARK   96  A    between atoms: _227  and  _229
REMARK   97  A    between atoms: _229  and  _230
REMARK   98  A    between atoms: _229  and  _232
REMARK   99  A    between atoms: _232  and  _233
REMARK  100  A    between atoms: _238  and  _240
REMARK  101  A    between atoms: _240  and  _241
REMARK  102  A    between atoms: _244  and  _246
REMARK  103  A    between atoms: _246  and  _247
REMARK  104  A    between atoms: _246  and  _249
REMARK  105  A    between atoms: _249  and  _250
REMARK  106  A    between atoms: _253  and  _255
REMARK  107  A    between atoms: _255  and  _256
REMARK  108  A    between atoms: _255  and  _258
REMARK  109  A    between atoms: _261  and  _263
REMARK  110  A    between atoms: _263  and  _264
REMARK  111  A    between atoms: _267  and  _268
REMARK  112  A    between atoms: _273  and  _275
REMARK  113  A    between atoms: _275  and  _276
REMARK  114  A    between atoms: _275  and  _278
REMARK  115  A    between atoms: _278  and  _279
REMARK  116  A    between atoms: _281  and  _283
REMARK  117  A    between atoms: _283  and  _284
REMARK  118  A    between atoms: _283  and  _286
REMARK  119  A    between atoms: _286  and  _287
REMARK  120  A    between atoms: _290  and  _292
REMARK  121  A    between atoms: _292  and  _293
REMARK  122  A    between atoms: _292  and  _295
REMARK  123  A    between atoms: _295  and  _296
REMARK  124  A    between atoms: _296  and  _297
REMARK  125  A    between atoms: _297  and  _298
REMARK  126  A    between atoms: _307  and  _309
REMARK  127  A    between atoms: _309  and  _310
REMARK  128  A    between atoms: _309  and  _312
REMARK  129  A    between atoms: _312  and  _313
REMARK  130  A    between atoms: _316  and  _318
REMARK  131  A    between atoms: _318  and  _319
REMARK  132  A    between atoms: _318  and  _321
REMARK  133  A    between atoms: _321  and  _322
REMARK  134  A    between atoms: _325  and  _326
REMARK  135  A    between atoms: _331  and  _333
REMARK  136  A    between atoms: _333  and  _334
REMARK  137  A    between atoms: _336  and  _338
REMARK  138  A    between atoms: _338  and  _339
REMARK  139  A    between atoms: _338  and  _341
REMARK  140  A    between atoms: _344  and  _346
REMARK  141  A    between atoms: _346  and  _347
REMARK  142  A    between atoms: _349  and  _351
REMARK  143  A    between atoms: _351  and  _352
REMARK  144  A    between atoms: _355  and  _357
REMARK  145  A    between atoms: _357  and  _358
REMARK  146  A    between atoms: _357  and  _360
REMARK  147  A    between atoms: _360  and  _361
REMARK  148  A    between atoms: _361  and  _362
REMARK  149  A    between atoms: _367  and  _369
REMARK  150  A    between atoms: _369  and  _370
REMARK  151  A    between atoms: _372  and  _374
REMARK  152  A    between atoms: _374  and  _375
REMARK  153  A    between atoms: _377  and  _379
REMARK  154  A    between atoms: _379  and  _380
REMARK  155  A    between atoms: _379  and  _382
REMARK  156  A    between atoms: _382  and  _383
REMARK  157  A    between atoms: _386  and  _388
REMARK  158  A    between atoms: _388  and  _389
REMARK  159  A    between atoms: _388  and  _391
REMARK  160  A    between atoms: _394  and  _396
REMARK  161  A    between atoms: _396  and  _397
REMARK  162  A    between atoms: _399  and  _401
REMARK  163  A    between atoms: _401  and  _402
REMARK  164  A    between atoms: _401  and  _404
REMARK  165  A    between atoms: _404  and  _405
REMARK  166  A    between atoms: _405  and  _406
REMARK  167  A    between atoms: _406  and  _407
REMARK  168  A    between atoms: _416  and  _418
REMARK  169  A    between atoms: _418  and  _419
REMARK  170  A    between atoms: _418  and  _421
REMARK  171  A    between atoms: _421  and  _422
REMARK  172  A    between atoms: _424  and  _426
REMARK  173  A    between atoms: _426  and  _427
REMARK  174  A    between atoms: _426  and  _429
REMARK  175  A    between atoms: _429  and  _430
REMARK  176  A    between atoms: _433  and  _435
REMARK  177  A    between atoms: _435  and  _436
REMARK  178  A    between atoms: _435  and  _438
REMARK  179  A    between atoms: _438  and  _439
REMARK  180  A    between atoms: _444  and  _445
REMARK  181  A    between atoms: _447  and  _449
REMARK  182  A    between atoms: _449  and  _450
REMARK  183  A    between atoms: _449  and  _452
REMARK  184  A    between atoms: _452  and  _453
REMARK  185  A    between atoms: _456  and  _458
REMARK  186  A    between atoms: _458  and  _459
REMARK  187  A    between atoms: _462  and  _464
REMARK  188  A    between atoms: _464  and  _465
REMARK  189  A    between atoms: _464  and  _467
REMARK  190  A    between atoms: _467  and  _468
REMARK  191  A    between atoms: _471  and  _473
REMARK  192  A    between atoms: _473  and  _474
REMARK  193  A    between atoms: _473  and  _476
REMARK  194  A    between atoms: _476  and  _477
REMARK  195  A    between atoms: _481  and  _482
REMARK  196  A    between atoms: _487  and  _489
REMARK  197  A    between atoms: _489  and  _490
REMARK  198  A    between atoms: _489  and  _492
REMARK  199  A    between atoms: _492  and  _493
REMARK  200  A    between atoms: _493  and  _494
REMARK  201  A    between atoms: _497  and  _499
REMARK  202  A    between atoms: _499  and  _500
REMARK  203  A    between atoms: _499  and  _502
REMARK  204  A    between atoms: _502  and  _503
REMARK  205  A    between atoms: _506  and  _508
REMARK  206  A    between atoms: _508  and  _509
REMARK  207  A    between atoms: _508  and  _511
REMARK  208  A    between atoms: _511  and  _512
REMARK  209  A    between atoms: _517  and  _519
REMARK  210  A    between atoms: _519  and  _520
REMARK  211  A    between atoms: _519  and  _522
REMARK  212  A    between atoms: _522  and  _523
REMARK  213  A    between atoms: _523  and  _524
REMARK  214  A    between atoms: _524  and  _525
REMARK  215  A    between atoms: _525  and  _526
REMARK  216  A    between atoms: _530  and  _532
REMARK  217  A    between atoms: _532  and  _533
REMARK  218  A    between atoms: _532  and  _535
REMARK  219  A    between atoms: _535  and  _536
REMARK                            x       y       z     vdW  Elec       q    Type
REMARK                         _______ _______ _______ _____ _____    ______ ____
ROOT
ATOM      1  O   HOH     1      26.702 -19.609  18.825  0.00  0.00    +0.000 OA
ENDROOT
TORSDOF 0
REMARK  Name = ../refined-set-2016/2zz2/2zz2_pocket.pdb
REMARK  219 active torsions:
REMARK  status: ('A' for Active; 'I' for Inactive)
REMARK    1  A    between atoms: _1  and  _3
REMARK    2  A    between atoms: _3  and  _4
REMARK    3  A    between atoms: _3  and  _6
REMARK    4  A    between atoms: _6  and  _7
REMARK    5  A    between atoms: _10  and  _12
REMARK    6  A    between atoms: _12  and  _13
REMARK    7  A    between atoms: _12  and  _15
REMARK    8  A    between atoms: _15  and  _16
REMARK    9  A    between atoms: _19  and  _21
REMARK   10  A    between atoms: _21  and  _22
REMARK   11  A    between atoms: _25  and  _27
REMARK   12  A    between atoms: _27  and  _28
REMARK   13  A    between atoms: _27  and  _30
REMARK   14  A    between atoms: _30  and  _31
REMARK   15  A    between atoms: _31  and  _32
REMARK   16  A    between atoms: _34  and  _36
REMARK   17  A    between atoms: _36  and  _37
REMARK   18  A    between atoms: _36  and  _39
REMARK   19  A    between atoms: _39  and  _40
REMARK   20  A    between atoms: _43  and  _45
REMARK   21  A    between atoms: _45  and  _46
REMARK   22  A    between atoms: _45  and  _48
REMARK   23  A    between atoms: _48  and  _49
REMARK   24  A    between atoms: _49  and  _50
REMARK   25  A    between atoms: _50  and  _51
REMARK   26  A    between atoms: _51  and  _52
REMARK   27  A    between atoms: _56  and  _58
REMARK   28  A    between atoms: _58  and  _59
REMARK   29  A    between atoms: _58  and  _61
REMARK   30  A    between atoms: _61  and  _62
REMARK   31  A    between atoms: _65  and  _67
REMARK   32  A    between atoms: _67  and  _68
REMARK   33  A    between atoms: _70  and  _72
REMARK   34  A    between atoms: _72  and  _73
REMARK   35  A    between atoms: _72  and  _75
REMARK   36  A    between atoms: _75  and  _76
REMARK   37  A    between atoms: _81  and  _82
REMARK   38  A    between atoms: _85  and  _86
REMARK   39  A    between atoms: _91  and  _93
REMARK   40  A    between atoms: _93  and  _94
REMARK   41  A    between atoms: _93  and  _96
REMARK   42  A    between atoms: _96  and  _97
REMARK   43  A    between atoms: _100  and  _102
REMARK   44  A    between atoms: _102  and  _103
REMARK   45  A    between atoms: _102  and  _105
REMARK   46  A    between atoms: _105  and  _106
REMARK   47  A    between atoms: _109  and  _111
REMARK   48  A    between atoms: _111  and  _112
REMARK   49  A    between atoms: _115  and  _117
REMARK   50  A    between atoms: _117  and  _118
REMARK   51  A    between atoms: _117  and  _120
REMARK   52  A    between atoms: _120  and  _121
REMARK   53  A    between atoms: _124  and  _126
REMARK   54  A    between atoms: _126  and  _127
REMARK   55  A    between atoms: _126  and  _129
REMARK   56  A    between atoms: _129  and  _130
REMARK   57  A    between atoms: _136  and  _138
REMARK   58  A    between atoms: _138  and  _139
REMARK   59  A    between atoms: _142  and  _144
REMARK   60  A    between atoms: _144  and  _145
REMARK   61  A    between atoms: _144  and  _147
REMARK   62  A    between atoms: _147  and  _148
REMARK   63  A    between atoms: _151  and  _153
REMARK   64  A    between atoms: _153  and  _154
REMARK   65  A    between atoms: _153  and  _156
REMARK   66  A    between atoms: _159  and  _161
REMARK   67  A    between atoms: _161  and  _162
REMARK   68  A    between atoms: _161  and  _164
REMARK   69  A    between atoms: _164  and  _165
REMARK   70  A    between atoms: _170  and  _172
REMARK   71  A    between atoms: _172  and  _173
REMARK   72  A    between atoms: _172  and  _175
REMARK   73  A    between atoms: _175  and  _176
REMARK   74  A    between atoms: _182  and  _184
REMARK   75  A    between atoms: _184  and  _185
REMARK   76  A    between atoms: _184  and  _187
REMARK   77  A    between atoms: _187  and  _188
REMARK   78  A    between atoms: _191  and  _193
REMARK   79  A    between atoms: _193  and  _194
REMARK   80  A    between atoms: _193  and  _196
REMARK   81  A    between atoms: _196  and  _197
REMARK   82  A    between atoms: _200  and  _202
REMARK   83  A    between atoms: _202  and  _203
REMARK   84  A    between atoms: _202  and  _205
REMARK   85  A    between atoms: _205  and  _206
REMARK   86  A    between atoms: _206  and  _207
REMARK   87  A    between atoms: _210  and  _212
REMARK   88  A    between atoms: _212  and  _213
REMARK   89  A    between atoms: _212  and  _215
REMARK   90  A    between atoms: _215  and  _216
REMARK   91  A    between atoms: _216  and  _217
REMARK   92  A    between atoms: _219  and  _221
REMARK   93  A    between atoms: _221  and  _222
REMARK   94  A    between atoms: _221  and  _224
REMARK   95  A    between atoms: _224  and  _225
REMARK   96  A    between atoms: _227  and  _229
REMARK   97  A    between atoms: _229  and  _230
REMARK   98  A    between atoms: _229  and  _232
REMARK   99  A    between atoms: _232  and  _233
REMARK  100  A    between atoms: _238  and  _240
REMARK  101  A    between atoms: _240  and  _241
REMARK  102  A    between atoms: _244  and  _246
REMARK  103  A    between atoms: _246  and  _247
REMARK  104  A    between atoms: _246  and  _249
REMARK  105  A    between atoms: _249  and  _250
REMARK  106  A    between atoms: _253  and  _255
REMARK  107  A    between atoms: _255  and  _256
REMARK  108  A    between atoms: _255  and  _258
REMARK  109  A    between atoms: _261  and  _263
REMARK  110  A    between atoms: _263  and  _264
REMARK  111  A    between atoms: _267  and  _268
REMARK  112  A    between atoms: _273  and  _275
REMARK  113  A    between atoms: _275  and  _276
REMARK  114  A    between atoms: _275  and  _278
REMARK  115  A    between atoms: _278  and  _279
REMARK  116  A    between atoms: _281  and  _283
REMARK  117  A    between atoms: _283  and  _284
REMARK  118  A    between atoms: _283  and  _286
REMARK  119  A    between atoms: _286  and  _287
REMARK  120  A    between atoms: _290  and  _292
REMARK  121  A    between atoms: _292  and  _293
REMARK  122  A    between atoms: _292  and  _295
REMARK  123  A    between atoms: _295  and  _296
REMARK  124  A    between atoms: _296  and  _297
REMARK  125  A    between atoms: _297  and  _298
REMARK  126  A    between atoms: _307  and  _309
REMARK  127  A    between atoms: _309  and  _310
REMARK  128  A    between atoms: _309  and  _312
REMARK  129  A    between atoms: _312  and  _313
REMARK  130  A    between atoms: _316  and  _318
REMARK  131  A    between atoms: _318  and  _319
REMARK  132  A    between atoms: _318  and  _321
REMARK  133  A    between atoms: _321  and  _322
REMARK  134  A    between atoms: _325  and  _326
REMARK  135  A    between atoms: _331  and  _333
REMARK  136  A    between atoms: _333  and  _334
REMARK  137  A    between atoms: _336  and  _338
REMARK  138  A    between atoms: _338  and  _339
REMARK  139  A    between atoms: _338  and  _341
REMARK  140  A    between atoms: _344  and  _346
REMARK  141  A    between atoms: _346  and  _347
REMARK  142  A    between atoms: _349  and  _351
REMARK  143  A    between atoms: _351  and  _352
REMARK  144  A    between atoms: _355  and  _357
REMARK  145  A    between atoms: _357  and  _358
REMARK  146  A    between atoms: _357  and  _360
REMARK  147  A    between atoms: _360  and  _361
REMARK  148  A    between atoms: _361  and  _362
REMARK  149  A    between atoms: _367  and  _369
REMARK  150  A    between atoms: _369  and  _370
REMARK  151  A    between atoms: _372  and  _374
REMARK  152  A    between atoms: _374  and  _375
REMARK  153  A    between atoms: _377  and  _379
REMARK  154  A    between atoms: _379  and  _380
REMARK  155  A    between atoms: _379  and  _382
REMARK  156  A    between atoms: _382  and  _383
REMARK  157  A    between atoms: _386  and  _388
REMARK  158  A    between atoms: _388  and  _389
REMARK  159  A    between atoms: _388  and  _391
REMARK  160  A    between atoms: _394  and  _396
REMARK  161  A    between atoms: _396  and  _397
REMARK  162  A    between atoms: _399  and  _401
REMARK  163  A    between atoms: _401  and  _402
REMARK  164  A    between atoms: _401  and  _404
REMARK  165  A    between atoms: _404  and  _405
REMARK  166  A    between atoms: _405  and  _406
REMARK  167  A    between atoms: _406  and  _407
REMARK  168  A    between atoms: _416  and  _418
REMARK  169  A    between atoms: _418  and  _419
REMARK  170  A    between atoms: _418  and  _421
REMARK  171  A    between atoms: _421  and  _422
REMARK  172  A    between atoms: _424  and  _426
REMARK  173  A    between atoms: _426  and  _427
REMARK  174  A    between atoms: _426  and  _429
REMARK  175  A    between atoms: _429  and  _430
REMARK  176  A    between atoms: _433  and  _435
REMARK  177  A    between atoms: _435  and  _436
REMARK  178  A    between atoms: _435  and  _438
REMARK  179  A    between atoms: _438  and  _439
REMARK  180  A    between atoms: _444  and  _445
REMARK  181  A    between atoms: _447  and  _449
REMARK  182  A    between atoms: _449  and  _450
REMARK  183  A    between atoms: _449  and  _452
REMARK  184  A    between atoms: _452  and  _453
REMARK  185  A    between atoms: _456  and  _458
REMARK  186  A    between atoms: _458  and  _459
REMARK  187  A    between atoms: _462  and  _464
REMARK  188  A    between atoms: _464  and  _465
REMARK  189  A    between atoms: _464  and  _467
REMARK  190  A    between atoms: _467  and  _468
REMARK  191  A    between atoms: _471  and  _473
REMARK  192  A    between atoms: _473  and  _474
REMARK  193  A    between atoms: _473  and  _476
REMARK  194  A    between atoms: _476  and  _477
REMARK  195  A    between atoms: _481  and  _482
REMARK  196  A    between atoms: _487  and  _489
REMARK  197  A    between atoms: _489  and  _490
REMARK  198  A    between atoms: _489  and  _492
REMARK  199  A    between atoms: _492  and  _493
REMARK  200  A    between atoms: _493  and  _494
REMARK  201  A    between atoms: _497  and  _499
REMARK  202  A    between atoms: _499  and  _500
REMARK  203  A    between atoms: _499  and  _502
REMARK  204  A    between atoms: _502  and  _503
REMARK  205  A    between atoms: _506  and  _508
REMARK  206  A    between atoms: _508  and  _509
REMARK  207  A    between atoms: _508  and  _511
REMARK  208  A    between atoms: _511  and  _512
REMARK  209  A    between atoms: _517  and  _519
REMARK  210  A    between atoms: _519  and  _520
REMARK  211  A    between atoms: _519  and  _522
REMARK  212  A    between atoms: _522  and  _523
REMARK  213  A    between atoms: _523  and  _524
REMARK  214  A    between atoms: _524  and  _525
REMARK  215  A    between atoms: _525  and  _526
REMARK  216  A    between atoms: _530  and  _532
REMARK  217  A    between atoms: _532  and  _533
REMARK  218  A    between atoms: _532  and  _535
REMARK  219  A    between atoms: _535  and  _536
REMARK                            x       y       z     vdW  Elec       q    Type
REMARK                         _______ _______ _______ _____ _____    ______ ____
ROOT
ATOM      1  O   HOH     1      30.370 -10.546  12.337  0.00  0.00    +0.000 OA
ENDROOT
TORSDOF 0
REMARK  Name = ../refined-set-2016/2zz2/2zz2_pocket.pdb
REMARK  219 active torsions:
REMARK  status: ('A' for Active; 'I' for Inactive)
REMARK    1  A    between atoms: _1  and  _3
REMARK    2  A    between atoms: _3  and  _4
REMARK    3  A    between atoms: _3  and  _6
REMARK    4  A    between atoms: _6  and  _7
REMARK    5  A    between atoms: _10  and  _12
REMARK    6  A    between atoms: _12  and  _13
REMARK    7  A    between atoms: _12  and  _15
REMARK    8  A    between atoms: _15  and  _16
REMARK    9  A    between atoms: _19  and  _21
REMARK   10  A    between atoms: _21  and  _22
REMARK   11  A    between atoms: _25  and  _27
REMARK   12  A    between atoms: _27  and  _28
REMARK   13  A    between atoms: _27  and  _30
REMARK   14  A    between atoms: _30  and  _31
REMARK   15  A    between atoms: _31  and  _32
REMARK   16  A    between atoms: _34  and  _36
REMARK   17  A    between atoms: _36  and  _37
REMARK   18  A    between atoms: _36  and  _39
REMARK   19  A    between atoms: _39  and  _40
REMARK   20  A    between atoms: _43  and  _45
REMARK   21  A    between atoms: _45  and  _46
REMARK   22  A    between atoms: _45  and  _48
REMARK   23  A    between atoms: _48  and  _49
REMARK   24  A    between atoms: _49  and  _50
REMARK   25  A    between atoms: _50  and  _51
REMARK   26  A    between atoms: _51  and  _52
REMARK   27  A    between atoms: _56  and  _58
REMARK   28  A    between atoms: _58  and  _59
REMARK   29  A    between atoms: _58  and  _61
REMARK   30  A    between atoms: _61  and  _62
REMARK   31  A    between atoms: _65  and  _67
REMARK   32  A    between atoms: _67  and  _68
REMARK   33  A    between atoms: _70  and  _72
REMARK   34  A    between atoms: _72  and  _73
REMARK   35  A    between atoms: _72  and  _75
REMARK   36  A    between atoms: _75  and  _76
REMARK   37  A    between atoms: _81  and  _82
REMARK   38  A    between atoms: _85  and  _86
REMARK   39  A    between atoms: _91  and  _93
REMARK   40  A    between atoms: _93  and  _94
REMARK   41  A    between atoms: _93  and  _96
REMARK   42  A    between atoms: _96  and  _97
REMARK   43  A    between atoms: _100  and  _102
REMARK   44  A    between atoms: _102  and  _103
REMARK   45  A    between atoms: _102  and  _105
REMARK   46  A    between atoms: _105  and  _106
REMARK   47  A    between atoms: _109  and  _111
REMARK   48  A    between atoms: _111  and  _112
REMARK   49  A    between atoms: _115  and  _117
REMARK   50  A    between atoms: _117  and  _118
REMARK   51  A    between atoms: _117  and  _120
REMARK   52  A    between atoms: _120  and  _121
REMARK   53  A    between atoms: _124  and  _126
REMARK   54  A    between atoms: _126  and  _127
REMARK   55  A    between atoms: _126  and  _129
REMARK   56  A    between atoms: _129  and  _130
REMARK   57  A    between atoms: _136  and  _138
REMARK   58  A    between atoms: _138  and  _139
REMARK   59  A    between atoms: _142  and  _144
REMARK   60  A    between atoms: _144  and  _145
REMARK   61  A    between atoms: _144  and  _147
REMARK   62  A    between atoms: _147  and  _148
REMARK   63  A    between atoms: _151  and  _153
REMARK   64  A    between atoms: _153  and  _154
REMARK   65  A    between atoms: _153  and  _156
REMARK   66  A    between atoms: _159  and  _161
REMARK   67  A    between atoms: _161  and  _162
REMARK   68  A    between atoms: _161  and  _164
REMARK   69  A    between atoms: _164  and  _165
REMARK   70  A    between atoms: _170  and  _172
REMARK   71  A    between atoms: _172  and  _173
REMARK   72  A    between atoms: _172  and  _175
REMARK   73  A    between atoms: _175  and  _176
REMARK   74  A    between atoms: _182  and  _184
REMARK   75  A    between atoms: _184  and  _185
REMARK   76  A    between atoms: _184  and  _187
REMARK   77  A    between atoms: _187  and  _188
REMARK   78  A    between atoms: _191  and  _193
REMARK   79  A    between atoms: _193  and  _194
REMARK   80  A    between atoms: _193  and  _196
REMARK   81  A    between atoms: _196  and  _197
REMARK   82  A    between atoms: _200  and  _202
REMARK   83  A    between atoms: _202  and  _203
REMARK   84  A    between atoms: _202  and  _205
REMARK   85  A    between atoms: _205  and  _206
REMARK   86  A    between atoms: _206  and  _207
REMARK   87  A    between atoms: _210  and  _212
REMARK   88  A    between atoms: _212  and  _213
REMARK   89  A    between atoms: _212  and  _215
REMARK   90  A    between atoms: _215  and  _216
REMARK   91  A    between atoms: _216  and  _217
REMARK   92  A    between atoms: _219  and  _221
REMARK   93  A    between atoms: _221  and  _222
REMARK   94  A    between atoms: _221  and  _224
REMARK   95  A    between atoms: _224  and  _225
REMARK   96  A    between atoms: _227  and  _229
REMARK   97  A    between atoms: _229  and  _230
REMARK   98  A    between atoms: _229  and  _232
REMARK   99  A    between atoms: _232  and  _233
REMARK  100  A    between atoms: _238  and  _240
REMARK  101  A    between atoms: _240  and  _241
REMARK  102  A    between atoms: _244  and  _246
REMARK  103  A    between atoms: _246  and  _247
REMARK  104  A    between atoms: _246  and  _249
REMARK  105  A    between atoms: _249  and  _250
REMARK  106  A    between atoms: _253  and  _255
REMARK  107  A    between atoms: _255  and  _256
REMARK  108  A    between atoms: _255  and  _258
REMARK  109  A    between atoms: _261  and  _263
REMARK  110  A    between atoms: _263  and  _264
REMARK  111  A    between atoms: _267  and  _268
REMARK  112  A    between atoms: _273  and  _275
REMARK  113  A    between atoms: _275  and  _276
REMARK  114  A    between atoms: _275  and  _278
REMARK  115  A    between atoms: _278  and  _279
REMARK  116  A    between atoms: _281  and  _283
REMARK  117  A    between atoms: _283  and  _284
REMARK  118  A    between atoms: _283  and  _286
REMARK  119  A    between atoms: _286  and  _287
REMARK  120  A    between atoms: _290  and  _292
REMARK  121  A    between atoms: _292  and  _293
REMARK  122  A    between atoms: _292  and  _295
REMARK  123  A    between atoms: _295  and  _296
REMARK  124  A    between atoms: _296  and  _297
REMARK  125  A    between atoms: _297  and  _298
REMARK  126  A    between atoms: _307  and  _309
REMARK  127  A    between atoms: _309  and  _310
REMARK  128  A    between atoms: _309  and  _312
REMARK  129  A    between atoms: _312  and  _313
REMARK  130  A    between atoms: _316  and  _318
REMARK  131  A    between atoms: _318  and  _319
REMARK  132  A    between atoms: _318  and  _321
REMARK  133  A    between atoms: _321  and  _322
REMARK  134  A    between atoms: _325  and  _326
REMARK  135  A    between atoms: _331  and  _333
REMARK  136  A    between atoms: _333  and  _334
REMARK  137  A    between atoms: _336  and  _338
REMARK  138  A    between atoms: _338  and  _339
REMARK  139  A    between atoms: _338  and  _341
REMARK  140  A    between atoms: _344  and  _346
REMARK  141  A    between atoms: _346  and  _347
REMARK  142  A    between atoms: _349  and  _351
REMARK  143  A    between atoms: _351  and  _352
REMARK  144  A    between atoms: _355  and  _357
REMARK  145  A    between atoms: _357  and  _358
REMARK  146  A    between atoms: _357  and  _360
REMARK  147  A    between atoms: _360  and  _361
REMARK  148  A    between atoms: _361  and  _362
REMARK  149  A    between atoms: _367  and  _369
REMARK  150  A    between atoms: _369  and  _370
REMARK  151  A    between atoms: _372  and  _374
REMARK  152  A    between atoms: _374  and  _375
REMARK  153  A    between atoms: _377  and  _379
REMARK  154  A    between atoms: _379  and  _380
REMARK  155  A    between atoms: _379  and  _382
REMARK  156  A    between atoms: _382  and  _383
REMARK  157  A    between atoms: _386  and  _388
REMARK  158  A    between atoms: _388  and  _389
REMARK  159  A    between atoms: _388  and  _391
REMARK  160  A    between atoms: _394  and  _396
REMARK  161  A    between atoms: _396  and  _397
REMARK  162  A    between atoms: _399  and  _401
REMARK  163  A    between atoms: _401  and  _402
REMARK  164  A    between atoms: _401  and  _404
REMARK  165  A    between atoms: _404  and  _405
REMARK  166  A    between atoms: _405  and  _406
REMARK  167  A    between atoms: _406  and  _407
REMARK  168  A    between atoms: _416  and  _418
REMARK  169  A    between atoms: _418  and  _419
REMARK  170  A    between atoms: _418  and  _421
REMARK  171  A    between atoms: _421  and  _422
REMARK  172  A    between atoms: _424  and  _426
REMARK  173  A    between atoms: _426  and  _427
REMARK  174  A    between atoms: _426  and  _429
REMARK  175  A    between atoms: _429  and  _430
REMARK  176  A    between atoms: _433  and  _435
REMARK  177  A    between atoms: _435  and  _436
REMARK  178  A    between atoms: _435  and  _438
REMARK  179  A    between atoms: _438  and  _439
REMARK  180  A    between atoms: _444  and  _445
REMARK  181  A    between atoms: _447  and  _449
REMARK  182  A    between atoms: _449  and  _450
REMARK  183  A    between atoms: _449  and  _452
REMARK  184  A    between atoms: _452  and  _453
REMARK  185  A    between atoms: _456  and  _458
REMARK  186  A    between atoms: _458  and  _459
REMARK  187  A    between atoms: _462  and  _464
REMARK  188  A    between atoms: _464  and  _465
REMARK  189  A    between atoms: _464  and  _467
REMARK  190  A    between atoms: _467  and  _468
REMARK  191  A    between atoms: _471  and  _473
REMARK  192  A    between atoms: _473  and  _474
REMARK  193  A    between atoms: _473  and  _476
REMARK  194  A    between atoms: _476  and  _477
REMARK  195  A    between atoms: _481  and  _482
REMARK  196  A    between atoms: _487  and  _489
REMARK  197  A    between atoms: _489  and  _490
REMARK  198  A    between atoms: _489  and  _492
REMARK  199  A    between atoms: _492  and  _493
REMARK  200  A    between atoms: _493  and  _494
REMARK  201  A    between atoms: _497  and  _499
REMARK  202  A    between atoms: _499  and  _500
REMARK  203  A    between atoms: _499  and  _502
REMARK  204  A    between atoms: _502  and  _503
REMARK  205  A    between atoms: _506  and  _508
REMARK  206  A    between atoms: _508  and  _509
REMARK  207  A    between atoms: _508  and  _511
REMARK  208  A    between atoms: _511  and  _512
REMARK  209  A    between atoms: _517  and  _519
REMARK  210  A    between atoms: _519  and  _520
REMARK  211  A    between atoms: _519  and  _522
REMARK  212  A    between atoms: _522  and  _523
REMARK  213  A    between atoms: _523  and  _524
REMARK  214  A    between atoms: _524  and  _525
REMARK  215  A    between atoms: _525  and  _526
REMARK  216  A    between atoms: _530  and  _532
REMARK  217  A    between atoms: _532  and  _533
REMARK  218  A    between atoms: _532  and  _535
REMARK  219  A    between atoms: _535  and  _536
REMARK                            x       y       z     vdW  Elec       q    Type
REMARK                         _______ _______ _______ _____ _____    ______ ____
ROOT
ATOM      1  O   HOH     1      28.507 -10.609   8.991  0.00  0.00    +0.000 OA
ENDROOT
TORSDOF 0
REMARK  Name = ../refined-set-2016/2zz2/2zz2_pocket.pdb
REMARK  219 active torsions:
REMARK  status: ('A' for Active; 'I' for Inactive)
REMARK    1  A    between atoms: _1  and  _3
REMARK    2  A    between atoms: _3  and  _4
REMARK    3  A    between atoms: _3  and  _6
REMARK    4  A    between atoms: _6  and  _7
REMARK    5  A    between atoms: _10  and  _12
REMARK    6  A    between atoms: _12  and  _13
REMARK    7  A    between atoms: _12  and  _15
REMARK    8  A    between atoms: _15  and  _16
REMARK    9  A    between atoms: _19  and  _21
REMARK   10  A    between atoms: _21  and  _22
REMARK   11  A    between atoms: _25  and  _27
REMARK   12  A    between atoms: _27  and  _28
REMARK   13  A    between atoms: _27  and  _30
REMARK   14  A    between atoms: _30  and  _31
REMARK   15  A    between atoms: _31  and  _32
REMARK   16  A    between atoms: _34  and  _36
REMARK   17  A    between atoms: _36  and  _37
REMARK   18  A    between atoms: _36  and  _39
REMARK   19  A    between atoms: _39  and  _40
REMARK   20  A    between atoms: _43  and  _45
REMARK   21  A    between atoms: _45  and  _46
REMARK   22  A    between atoms: _45  and  _48
REMARK   23  A    between atoms: _48  and  _49
REMARK   24  A    between atoms: _49  and  _50
REMARK   25  A    between atoms: _50  and  _51
REMARK   26  A    between atoms: _51  and  _52
REMARK   27  A    between atoms: _56  and  _58
REMARK   28  A    between atoms: _58  and  _59
REMARK   29  A    between atoms: _58  and  _61
REMARK   30  A    between atoms: _61  and  _62
REMARK   31  A    between atoms: _65  and  _67
REMARK   32  A    between atoms: _67  and  _68
REMARK   33  A    between atoms: _70  and  _72
REMARK   34  A    between atoms: _72  and  _73
REMARK   35  A    between atoms: _72  and  _75
REMARK   36  A    between atoms: _75  and  _76
REMARK   37  A    between atoms: _81  and  _82
REMARK   38  A    between atoms: _85  and  _86
REMARK   39  A    between atoms: _91  and  _93
REMARK   40  A    between atoms: _93  and  _94
REMARK   41  A    between atoms: _93  and  _96
REMARK   42  A    between atoms: _96  and  _97
REMARK   43  A    between atoms: _100  and  _102
REMARK   44  A    between atoms: _102  and  _103
REMARK   45  A    between atoms: _102  and  _105
REMARK   46  A    between atoms: _105  and  _106
REMARK   47  A    between atoms: _109  and  _111
REMARK   48  A    between atoms: _111  and  _112
REMARK   49  A    between atoms: _115  and  _117
REMARK   50  A    between atoms: _117  and  _118
REMARK   51  A    between atoms: _117  and  _120
REMARK   52  A    between atoms: _120  and  _121
REMARK   53  A    between atoms: _124  and  _126
REMARK   54  A    between atoms: _126  and  _127
REMARK   55  A    between atoms: _126  and  _129
REMARK   56  A    between atoms: _129  and  _130
REMARK   57  A    between atoms: _136  and  _138
REMARK   58  A    between atoms: _138  and  _139
REMARK   59  A    between atoms: _142  and  _144
REMARK   60  A    between atoms: _144  and  _145
REMARK   61  A    between atoms: _144  and  _147
REMARK   62  A    between atoms: _147  and  _148
REMARK   63  A    between atoms: _151  and  _153
REMARK   64  A    between atoms: _153  and  _154
REMARK   65  A    between atoms: _153  and  _156
REMARK   66  A    between atoms: _159  and  _161
REMARK   67  A    between atoms: _161  and  _162
REMARK   68  A    between atoms: _161  and  _164
REMARK   69  A    between atoms: _164  and  _165
REMARK   70  A    between atoms: _170  and  _172
REMARK   71  A    between atoms: _172  and  _173
REMARK   72  A    between atoms: _172  and  _175
REMARK   73  A    between atoms: _175  and  _176
REMARK   74  A    between atoms: _182  and  _184
REMARK   75  A    between atoms: _184  and  _185
REMARK   76  A    between atoms: _184  and  _187
REMARK   77  A    between atoms: _187  and  _188
REMARK   78  A    between atoms: _191  and  _193
REMARK   79  A    between atoms: _193  and  _194
REMARK   80  A    between atoms: _193  and  _196
REMARK   81  A    between atoms: _196  and  _197
REMARK   82  A    between atoms: _200  and  _202
REMARK   83  A    between atoms: _202  and  _203
REMARK   84  A    between atoms: _202  and  _205
REMARK   85  A    between atoms: _205  and  _206
REMARK   86  A    between atoms: _206  and  _207
REMARK   87  A    between atoms: _210  and  _212
REMARK   88  A    between atoms: _212  and  _213
REMARK   89  A    between atoms: _212  and  _215
REMARK   90  A    between atoms: _215  and  _216
REMARK   91  A    between atoms: _216  and  _217
REMARK   92  A    between atoms: _219  and  _221
REMARK   93  A    between atoms: _221  and  _222
REMARK   94  A    between atoms: _221  and  _224
REMARK   95  A    between atoms: _224  and  _225
REMARK   96  A    between atoms: _227  and  _229
REMARK   97  A    between atoms: _229  and  _230
REMARK   98  A    between atoms: _229  and  _232
REMARK   99  A    between atoms: _232  and  _233
REMARK  100  A    between atoms: _238  and  _240
REMARK  101  A    between atoms: _240  and  _241
REMARK  102  A    between atoms: _244  and  _246
REMARK  103  A    between atoms: _246  and  _247
REMARK  104  A    between atoms: _246  and  _249
REMARK  105  A    between atoms: _249  and  _250
REMARK  106  A    between atoms: _253  and  _255
REMARK  107  A    between atoms: _255  and  _256
REMARK  108  A    between atoms: _255  and  _258
REMARK  109  A    between atoms: _261  and  _263
REMARK  110  A    between atoms: _263  and  _264
REMARK  111  A    between atoms: _267  and  _268
REMARK  112  A    between atoms: _273  and  _275
REMARK  113  A    between atoms: _275  and  _276
REMARK  114  A    between atoms: _275  and  _278
REMARK  115  A    between atoms: _278  and  _279
REMARK  116  A    between atoms: _281  and  _283
REMARK  117  A    between atoms: _283  and  _284
REMARK  118  A    between atoms: _283  and  _286
REMARK  119  A    between atoms: _286  and  _287
REMARK  120  A    between atoms: _290  and  _292
REMARK  121  A    between atoms: _292  and  _293
REMARK  122  A    between atoms: _292  and  _295
REMARK  123  A    between atoms: _295  and  _296
REMARK  124  A    between atoms: _296  and  _297
REMARK  125  A    between atoms: _297  and  _298
REMARK  126  A    between atoms: _307  and  _309
REMARK  127  A    between atoms: _309  and  _310
REMARK  128  A    between atoms: _309  and  _312
REMARK  129  A    between atoms: _312  and  _313
REMARK  130  A    between atoms: _316  and  _318
REMARK  131  A    between atoms: _318  and  _319
REMARK  132  A    between atoms: _318  and  _321
REMARK  133  A    between atoms: _321  and  _322
REMARK  134  A    between atoms: _325  and  _326
REMARK  135  A    between atoms: _331  and  _333
REMARK  136  A    between atoms: _333  and  _334
REMARK  137  A    between atoms: _336  and  _338
REMARK  138  A    between atoms: _338  and  _339
REMARK  139  A    between atoms: _338  and  _341
REMARK  140  A    between atoms: _344  and  _346
REMARK  141  A    between atoms: _346  and  _347
REMARK  142  A    between atoms: _349  and  _351
REMARK  143  A    between atoms: _351  and  _352
REMARK  144  A    between atoms: _355  and  _357
REMARK  145  A    between atoms: _357  and  _358
REMARK  146  A    between atoms: _357  and  _360
REMARK  147  A    between atoms: _360  and  _361
REMARK  148  A    between atoms: _361  and  _362
REMARK  149  A    between atoms: _367  and  _369
REMARK  150  A    between atoms: _369  and  _370
REMARK  151  A    between atoms: _372  and  _374
REMARK  152  A    between atoms: _374  and  _375
REMARK  153  A    between atoms: _377  and  _379
REMARK  154  A    between atoms: _379  and  _380
REMARK  155  A    between atoms: _379  and  _382
REMARK  156  A    between atoms: _382  and  _383
REMARK  157  A    between atoms: _386  and  _388
REMARK  158  A    between atoms: _388  and  _389
REMARK  159  A    between atoms: _388  and  _391
REMARK  160  A    between atoms: _394  and  _396
REMARK  161  A    between atoms: _396  and  _397
REMARK  162  A    between atoms: _399  and  _401
REMARK  163  A    between atoms: _401  and  _402
REMARK  164  A    between atoms: _401  and  _404
REMARK  165  A    between atoms: _404  and  _405
REMARK  166  A    between atoms: _405  and  _406
REMARK  167  A    between atoms: _406  and  _407
REMARK  168  A    between atoms: _416  and  _418
REMARK  169  A    between atoms: _418  and  _419
REMARK  170  A    between atoms: _418  and  _421
REMARK  171  A    between atoms: _421  and  _422
REMARK  172  A    between atoms: _424  and  _426
REMARK  173  A    between atoms: _426  and  _427
REMARK  174  A    between atoms: _426  and  _429
REMARK  175  A    between atoms: _429  and  _430
REMARK  176  A    between atoms: _433  and  _435
REMARK  177  A    between atoms: _435  and  _436
REMARK  178  A    between atoms: _435  and  _438
REMARK  179  A    between atoms: _438  and  _439
REMARK  180  A    between atoms: _444  and  _445
REMARK  181  A    between atoms: _447  and  _449
REMARK  182  A    between atoms: _449  and  _450
REMARK  183  A    between atoms: _449  and  _452
REMARK  184  A    between atoms: _452  and  _453
REMARK  185  A    between atoms: _456  and  _458
REMARK  186  A    between atoms: _458  and  _459
REMARK  187  A    between atoms: _462  and  _464
REMARK  188  A    between atoms: _464  and  _465
REMARK  189  A    between atoms: _464  and  _467
REMARK  190  A    between atoms: _467  and  _468
REMARK  191  A    between atoms: _471  and  _473
REMARK  192  A    between atoms: _473  and  _474
REMARK  193  A    between atoms: _473  and  _476
REMARK  194  A    between atoms: _476  and  _477
REMARK  195  A    between atoms: _481  and  _482
REMARK  196  A    between atoms: _487  and  _489
REMARK  197  A    between atoms: _489  and  _490
REMARK  198  A    between atoms: _489  and  _492
REMARK  199  A    between atoms: _492  and  _493
REMARK  200  A    between atoms: _493  and  _494
REMARK  201  A    between atoms: _497  and  _499
REMARK  202  A    between atoms: _499  and  _500
REMARK  203  A    between atoms: _499  and  _502
REMARK  204  A    between atoms: _502  and  _503
REMARK  205  A    between atoms: _506  and  _508
REMARK  206  A    between atoms: _508  and  _509
REMARK  207  A    between atoms: _508  and  _511
REMARK  208  A    between atoms: _511  and  _512
REMARK  209  A    between atoms: _517  and  _519
REMARK  210  A    between atoms: _519  and  _520
REMARK  211  A    between atoms: _519  and  _522
REMARK  212  A    between atoms: _522  and  _523
REMARK  213  A    between atoms: _523  and  _524
REMARK  214  A    between atoms: _524  and  _525
REMARK  215  A    between atoms: _525  and  _526
REMARK  216  A    between atoms: _530  and  _532
REMARK  217  A    between atoms: _532  and  _533
REMARK  218  A    between atoms: _532  and  _535
REMARK  219  A    between atoms: _535  and  _536
REMARK                            x       y       z     vdW  Elec       q    Type
REMARK                         _______ _______ _______ _____ _____    ______ ____
ROOT
ATOM      1  O   HOH     1      19.844 -10.509   9.947  0.00  0.00    +0.000 OA
ENDROOT
TORSDOF 0
