REMARK  Name = ../refined-set-2016/3ag9/3ag9_pocket.pdb
REMARK  313 active torsions:
REMARK  status: ('A' for Active; 'I' for Inactive)
REMARK    1  A    between atoms: _1  and  _3
REMARK    2  A    between atoms: _3  and  _4
REMARK    3  A    between atoms: _3  and  _6
REMARK    4  A    between atoms: _6  and  _7
REMARK    5  A    between atoms: _10  and  _12
REMARK    6  A    between atoms: _12  and  _13
REMARK    7  A    between atoms: _12  and  _15
REMARK    8  A    between atoms: _15  and  _16
REMARK    9  A    between atoms: _19  and  _21
REMARK   10  A    between atoms: _21  and  _22
REMARK   11  A    between atoms: _24  and  _26
REMARK   12  A    between atoms: _26  and  _27
REMARK   13  A    between atoms: _26  and  _29
REMARK   14  A    between atoms: _29  and  _30
REMARK   15  A    between atoms: _33  and  _35
REMARK   16  A    between atoms: _35  and  _36
REMARK   17  A    between atoms: _38  and  _40
REMARK   18  A    between atoms: _40  and  _41
REMARK   19  A    between atoms: _40  and  _43
REMARK   20  A    between atoms: _43  and  _44
REMARK   21  A    between atoms: _46  and  _48
REMARK   22  A    between atoms: _48  and  _49
REMARK   23  A    between atoms: _48  and  _51
REMARK   24  A    between atoms: _51  and  _52
REMARK   25  A    between atoms: _58  and  _60
REMARK   26  A    between atoms: _60  and  _61
REMARK   27  A    between atoms: _63  and  _65
REMARK   28  A    between atoms: _65  and  _66
REMARK   29  A    between atoms: _65  and  _68
REMARK   30  A    between atoms: _68  and  _69
REMARK   31  A    between atoms: _69  and  _70
REMARK   32  A    between atoms: _70  and  _71
REMARK   33  A    between atoms: _80  and  _82
REMARK   34  A    between atoms: _82  and  _83
REMARK   35  A    between atoms: _82  and  _85
REMARK   36  A    between atoms: _88  and  _90
REMARK   37  A    between atoms: _90  and  _91
REMARK   38  A    between atoms: _90  and  _93
REMARK   39  A    between atoms: _93  and  _94
REMARK   40  A    between atoms: _94  and  _95
REMARK   41  A    between atoms: _97  and  _99
REMARK   42  A    between atoms: _99  and  _100
REMARK   43  A    between atoms: _99  and  _102
REMARK   44  A    between atoms: _102  and  _103
REMARK   45  A    between atoms: _106  and  _108
REMARK   46  A    between atoms: _108  and  _109
REMARK   47  A    between atoms: _108  and  _111
REMARK   48  A    between atoms: _111  and  _112
REMARK   49  A    between atoms: _117  and  _118
REMARK   50  A    between atoms: _120  and  _122
REMARK   51  A    between atoms: _122  and  _123
REMARK   52  A    between atoms: _126  and  _128
REMARK   53  A    between atoms: _128  and  _129
REMARK   54  A    between atoms: _128  and  _131
REMARK   55  A    between atoms: _131  and  _132
REMARK   56  A    between atoms: _132  and  _133
REMARK   57  A    between atoms: _135  and  _137
REMARK   58  A    between atoms: _137  and  _138
REMARK   59  A    between atoms: _137  and  _140
REMARK   60  A    between atoms: _140  and  _141
REMARK   61  A    between atoms: _141  and  _142
REMARK   62  A    between atoms: _142  and  _143
REMARK   63  A    between atoms: _143  and  _144
REMARK   64  A    between atoms: _148  and  _150
REMARK   65  A    between atoms: _150  and  _151
REMARK   66  A    between atoms: _150  and  _153
REMARK   67  A    between atoms: _153  and  _154
REMARK   68  A    between atoms: _157  and  _159
REMARK   69  A    between atoms: _159  and  _160
REMARK   70  A    between atoms: _159  and  _162
REMARK   71  A    between atoms: _162  and  _163
REMARK   72  A    between atoms: _166  and  _168
REMARK   73  A    between atoms: _168  and  _169
REMARK   74  A    between atoms: _168  and  _171
REMARK   75  A    between atoms: _171  and  _172
REMARK   76  A    between atoms: _175  and  _177
REMARK   77  A    between atoms: _177  and  _178
REMARK   78  A    between atoms: _177  and  _180
REMARK   79  A    between atoms: _180  and  _181
REMARK   80  A    between atoms: _181  and  _182
REMARK   81  A    between atoms: _182  and  _183
REMARK   82  A    between atoms: _183  and  _184
REMARK   83  A    between atoms: _188  and  _190
REMARK   84  A    between atoms: _190  and  _191
REMARK   85  A    between atoms: _190  and  _193
REMARK   86  A    between atoms: _196  and  _198
REMARK   87  A    between atoms: _198  and  _199
REMARK   88  A    between atoms: _198  and  _201
REMARK   89  A    between atoms: _201  and  _202
REMARK   90  A    between atoms: _205  and  _207
REMARK   91  A    between atoms: _207  and  _208
REMARK   92  A    between atoms: _207  and  _210
REMARK   93  A    between atoms: _210  and  _211
REMARK   94  A    between atoms: _211  and  _212
REMARK   95  A    between atoms: _217  and  _219
REMARK   96  A    between atoms: _219  and  _220
REMARK   97  A    between atoms: _219  and  _222
REMARK   98  A    between atoms: _222  and  _223
REMARK   99  A    between atoms: _228  and  _230
REMARK  100  A    between atoms: _230  and  _231
REMARK  101  A    between atoms: _230  and  _233
REMARK  102  A    between atoms: _233  and  _234
REMARK  103  A    between atoms: _237  and  _239
REMARK  104  A    between atoms: _239  and  _240
REMARK  105  A    between atoms: _239  and  _242
REMARK  106  A    between atoms: _242  and  _243
REMARK  107  A    between atoms: _243  and  _244
REMARK  108  A    between atoms: _247  and  _249
REMARK  109  A    between atoms: _249  and  _250
REMARK  110  A    between atoms: _249  and  _252
REMARK  111  A    between atoms: _255  and  _257
REMARK  112  A    between atoms: _257  and  _258
REMARK  113  A    between atoms: _257  and  _260
REMARK  114  A    between atoms: _260  and  _261
REMARK  115  A    between atoms: _261  and  _262
REMARK  116  A    between atoms: _262  and  _263
REMARK  117  A    between atoms: _263  and  _264
REMARK  118  A    between atoms: _268  and  _270
REMARK  119  A    between atoms: _270  and  _271
REMARK  120  A    between atoms: _270  and  _273
REMARK  121  A    between atoms: _273  and  _274
REMARK  122  A    between atoms: _277  and  _279
REMARK  123  A    between atoms: _279  and  _280
REMARK  124  A    between atoms: _279  and  _282
REMARK  125  A    between atoms: _282  and  _283
REMARK  126  A    between atoms: _283  and  _284
REMARK  127  A    between atoms: _286  and  _288
REMARK  128  A    between atoms: _288  and  _289
REMARK  129  A    between atoms: _288  and  _291
REMARK  130  A    between atoms: _294  and  _296
REMARK  131  A    between atoms: _296  and  _297
REMARK  132  A    between atoms: _296  and  _299
REMARK  133  A    between atoms: _299  and  _300
REMARK  134  A    between atoms: _300  and  _301
REMARK  135  A    between atoms: _303  and  _305
REMARK  136  A    between atoms: _305  and  _306
REMARK  137  A    between atoms: _305  and  _308
REMARK  138  A    between atoms: _308  and  _309
REMARK  139  A    between atoms: _309  and  _310
REMARK  140  A    between atoms: _313  and  _315
REMARK  141  A    between atoms: _315  and  _316
REMARK  142  A    between atoms: _315  and  _318
REMARK  143  A    between atoms: _318  and  _319
REMARK  144  A    between atoms: _324  and  _325
REMARK  145  A    between atoms: _327  and  _329
REMARK  146  A    between atoms: _329  and  _330
REMARK  147  A    between atoms: _329  and  _332
REMARK  148  A    between atoms: _336  and  _337
REMARK  149  A    between atoms: _342  and  _344
REMARK  150  A    between atoms: _344  and  _345
REMARK  151  A    between atoms: _347  and  _349
REMARK  152  A    between atoms: _349  and  _350
REMARK  153  A    between atoms: _352  and  _354
REMARK  154  A    between atoms: _354  and  _355
REMARK  155  A    between atoms: _354  and  _357
REMARK  156  A    between atoms: _357  and  _358
REMARK  157  A    between atoms: _358  and  _359
REMARK  158  A    between atoms: _362  and  _364
REMARK  159  A    between atoms: _364  and  _365
REMARK  160  A    between atoms: _364  and  _367
REMARK  161  A    between atoms: _367  and  _368
REMARK  162  A    between atoms: _368  and  _369
REMARK  163  A    between atoms: _371  and  _373
REMARK  164  A    between atoms: _373  and  _374
REMARK  165  A    between atoms: _373  and  _376
REMARK  166  A    between atoms: _376  and  _377
REMARK  167  A    between atoms: _383  and  _385
REMARK  168  A    between atoms: _385  and  _386
REMARK  169  A    between atoms: _385  and  _388
REMARK  170  A    between atoms: _388  and  _389
REMARK  171  A    between atoms: _391  and  _393
REMARK  172  A    between atoms: _393  and  _394
REMARK  173  A    between atoms: _393  and  _396
REMARK  174  A    between atoms: _396  and  _397
REMARK  175  A    between atoms: _400  and  _402
REMARK  176  A    between atoms: _402  and  _403
REMARK  177  A    between atoms: _402  and  _405
REMARK  178  A    between atoms: _405  and  _406
REMARK  179  A    between atoms: _406  and  _407
REMARK  180  A    between atoms: _407  and  _408
REMARK  181  A    between atoms: _417  and  _419
REMARK  182  A    between atoms: _419  and  _420
REMARK  183  A    between atoms: _419  and  _422
REMARK  184  A    between atoms: _422  and  _423
REMARK  185  A    between atoms: _428  and  _429
REMARK  186  A    between atoms: _431  and  _433
REMARK  187  A    between atoms: _433  and  _434
REMARK  188  A    between atoms: _433  and  _436
REMARK  189  A    between atoms: _436  and  _437
REMARK  190  A    between atoms: _437  and  _438
REMARK  191  A    between atoms: _438  and  _439
REMARK  192  A    between atoms: _448  and  _450
REMARK  193  A    between atoms: _450  and  _451
REMARK  194  A    between atoms: _450  and  _453
REMARK  195  A    between atoms: _453  and  _454
REMARK  196  A    between atoms: _457  and  _459
REMARK  197  A    between atoms: _459  and  _460
REMARK  198  A    between atoms: _459  and  _462
REMARK  199  A    between atoms: _462  and  _463
REMARK  200  A    between atoms: _466  and  _468
REMARK  201  A    between atoms: _468  and  _469
REMARK  202  A    between atoms: _468  and  _471
REMARK  203  A    between atoms: _471  and  _472
REMARK  204  A    between atoms: _472  and  _473
REMARK  205  A    between atoms: _473  and  _474
REMARK  206  A    between atoms: _474  and  _475
REMARK  207  A    between atoms: _480  and  _481
REMARK  208  A    between atoms: _486  and  _488
REMARK  209  A    between atoms: _488  and  _489
REMARK  210  A    between atoms: _488  and  _491
REMARK  211  A    between atoms: _491  and  _492
REMARK  212  A    between atoms: _492  and  _493
REMARK  213  A    between atoms: _496  and  _498
REMARK  214  A    between atoms: _498  and  _499
REMARK  215  A    between atoms: _498  and  _501
REMARK  216  A    between atoms: _501  and  _502
REMARK  217  A    between atoms: _507  and  _509
REMARK  218  A    between atoms: _509  and  _510
REMARK  219  A    between atoms: _509  and  _512
REMARK  220  A    between atoms: _512  and  _513
REMARK  221  A    between atoms: _516  and  _518
REMARK  222  A    between atoms: _518  and  _519
REMARK  223  A    between atoms: _518  and  _521
REMARK  224  A    between atoms: _521  and  _522
REMARK  225  A    between atoms: _525  and  _527
REMARK  226  A    between atoms: _527  and  _528
REMARK  227  A    between atoms: _527  and  _530
REMARK  228  A    between atoms: _530  and  _531
REMARK  229  A    between atoms: _534  and  _536
REMARK  230  A    between atoms: _536  and  _537
REMARK  231  A    between atoms: _536  and  _539
REMARK  232  A    between atoms: _539  and  _540
REMARK  233  A    between atoms: _543  and  _545
REMARK  234  A    between atoms: _545  and  _546
REMARK  235  A    between atoms: _545  and  _548
REMARK  236  A    between atoms: _548  and  _549
REMARK  237  A    between atoms: _549  and  _550
REMARK  238  A    between atoms: _555  and  _557
REMARK  239  A    between atoms: _557  and  _558
REMARK  240  A    between atoms: _557  and  _560
REMARK  241  A    between atoms: _563  and  _565
REMARK  242  A    between atoms: _565  and  _566
REMARK  243  A    between atoms: _565  and  _568
REMARK  244  A    between atoms: _568  and  _569
REMARK  245  A    between atoms: _572  and  _574
REMARK  246  A    between atoms: _574  and  _575
REMARK  247  A    between atoms: _574  and  _577
REMARK  248  A    between atoms: _577  and  _578
REMARK  249  A    between atoms: _581  and  _583
REMARK  250  A    between atoms: _583  and  _584
REMARK  251  A    between atoms: _583  and  _586
REMARK  252  A    between atoms: _586  and  _587
REMARK  253  A    between atoms: _593  and  _595
REMARK  254  A    between atoms: _595  and  _596
REMARK  255  A    between atoms: _598  and  _600
REMARK  256  A    between atoms: _600  and  _601
REMARK  257  A    between atoms: _600  and  _603
REMARK  258  A    between atoms: _603  and  _604
REMARK  259  A    between atoms: _610  and  _612
REMARK  260  A    between atoms: _612  and  _613
REMARK  261  A    between atoms: _612  and  _615
REMARK  262  A    between atoms: _617  and  _619
REMARK  263  A    between atoms: _619  and  _620
REMARK  264  A    between atoms: _622  and  _624
REMARK  265  A    between atoms: _624  and  _625
REMARK  266  A    between atoms: _624  and  _627
REMARK  267  A    between atoms: _627  and  _628
REMARK  268  A    between atoms: _632  and  _633
REMARK  269  A    between atoms: _638  and  _640
REMARK  270  A    between atoms: _640  and  _641
REMARK  271  A    between atoms: _640  and  _643
REMARK  272  A    between atoms: _643  and  _644
REMARK  273  A    between atoms: _644  and  _645
REMARK  274  A    between atoms: _648  and  _650
REMARK  275  A    between atoms: _650  and  _651
REMARK  276  A    between atoms: _650  and  _653
REMARK  277  A    between atoms: _653  and  _654
REMARK  278  A    between atoms: _659  and  _660
REMARK  279  A    between atoms: _662  and  _664
REMARK  280  A    between atoms: _664  and  _665
REMARK  281  A    between atoms: _664  and  _667
REMARK  282  A    between atoms: _670  and  _672
REMARK  283  A    between atoms: _672  and  _673
REMARK  284  A    between atoms: _672  and  _675
REMARK  285  A    between atoms: _675  and  _676
REMARK  286  A    between atoms: _679  and  _681
REMARK  287  A    between atoms: _681  and  _682
REMARK  288  A    between atoms: _681  and  _684
REMARK  289  A    between atoms: _684  and  _685
REMARK  290  A    between atoms: _685  and  _686
REMARK  291  A    between atoms: _689  and  _691
REMARK  292  A    between atoms: _691  and  _692
REMARK  293  A    between atoms: _694  and  _696
REMARK  294  A    between atoms: _696  and  _697
REMARK  295  A    between atoms: _696  and  _699
REMARK  296  A    between atoms: _699  and  _700
REMARK  297  A    between atoms: _705  and  _706
REMARK  298  A    between atoms: _709  and  _710
REMARK  299  A    between atoms: _716  and  _717
REMARK  300  A    between atoms: _722  and  _724
REMARK  301  A    between atoms: _724  and  _725
REMARK  302  A    between atoms: _724  and  _727
REMARK  303  A    between atoms: _727  and  _728
REMARK  304  A    between atoms: _734  and  _736
REMARK  305  A    between atoms: _736  and  _737
REMARK  306  A    between atoms: _736  and  _739
REMARK  307  A    between atoms: _739  and  _740
REMARK  308  A    between atoms: _746  and  _748
REMARK  309  A    between atoms: _748  and  _749
REMARK  310  A    between atoms: _752  and  _754
REMARK  311  A    between atoms: _754  and  _755
REMARK  312  A    between atoms: _754  and  _757
REMARK  313  A    between atoms: _757  and  _758
REMARK                            x       y       z     vdW  Elec       q    Type
REMARK                         _______ _______ _______ _____ _____    ______ ____
ROOT
ATOM      1  CA  PHE A   7      16.450  -2.026   2.814  0.00  0.00    +0.153 C 
ENDROOT
BRANCH   1   2
ATOM      2  C   PHE A   7      15.620  -2.626   3.935  0.00  0.00    +0.241 C 
ATOM      3  O   PHE A   7      15.904  -3.738   4.418  0.00  0.00    -0.273 OA
ATOM      4  N   GLY A   8      14.573  -1.912   4.331  0.00  0.00    -0.295 N 
ATOM      5  H   GLY A   8      14.378  -0.990   3.892  0.00  0.00    +0.150 HD
BRANCH   4   6
ATOM      6  CA  GLY A   8      13.698  -2.416   5.377  0.00  0.00    +0.176 C 
BRANCH   6   7
ATOM      7  C   GLY A   8      12.430  -1.616   5.518  0.00  0.00    +0.243 C 
ATOM      8  N   ARG A   9      11.627  -2.003   6.504  0.00  0.00    -0.297 N 
ATOM      9  H   ARG A   9      11.855  -2.874   7.025  0.00  0.00    +0.150 HD
ATOM     10  O   GLY A   8      12.182  -0.679   4.756  0.00  0.00    -0.273 OA
BRANCH   8  11
ATOM     11  CA  ARG A   9      10.443  -1.251   6.877  0.00  0.00    +0.149 C 
BRANCH  11  12
ATOM     12  C   ARG A   9      10.242  -1.341   8.374  0.00  0.00    +0.241 C 
ATOM     13  O   ARG A   9      10.836  -2.193   9.046  0.00  0.00    -0.273 OA
ATOM     14  N   VAL A  10       9.399  -0.453   8.887  0.00  0.00    -0.297 N 
ATOM     15  H   VAL A  10       9.007   0.284   8.267  0.00  0.00    +0.150 HD
BRANCH  14  16
ATOM     16  CA  VAL A  10       9.008  -0.476  10.276  0.00  0.00    +0.149 C 
BRANCH  16  17
ATOM     17  C   VAL A  10       7.496  -0.679  10.372  0.00  0.00    +0.241 C 
ATOM     18  N   MET A  11       7.095  -1.657  11.176  0.00  0.00    -0.297 N 
ATOM     19  H   MET A  11       7.808  -2.211  11.692  0.00  0.00    +0.150 HD
ATOM     20  O   VAL A  10       6.720   0.054   9.758  0.00  0.00    -0.273 OA
BRANCH  18  21
ATOM     21  CA  MET A  11       5.686  -1.975  11.355  0.00  0.00    +0.149 C 
BRANCH  21  22
ATOM     22  C   MET A  11       5.221  -1.863  12.798  0.00  0.00    +0.241 C 
ATOM     23  O   MET A  11       5.937  -2.249  13.722  0.00  0.00    -0.273 OA
ATOM     24  N   LEU A  12       4.001  -1.375  12.971  0.00  0.00    -0.298 N 
ATOM     25  H   LEU A  12       3.509  -0.942  12.163  0.00  0.00    +0.150 HD
BRANCH  24  26
ATOM     26  CA  LEU A  12       3.336  -1.429  14.257  0.00  0.00    +0.137 C 
BRANCH  26  27
ATOM     27  C   LEU A  12       2.843  -2.863  14.481  0.00  0.00    +0.227 C 
ATOM     28  O   LEU A  12       2.118  -3.409  13.647  0.00  0.00    -0.286 OA
ENDBRANCH  26  27
BRANCH  26  29
ATOM     29  CB  LEU A  12       2.171  -0.434  14.291  0.00  0.00    +0.028 C 
BRANCH  29  30
ATOM     30  CG  LEU A  12       1.354  -0.452  15.587  0.00  0.00    +0.002 C 
ATOM     31  CD2 LEU A  12       2.239  -0.060  16.792  0.00  0.00    +0.000 C 
ATOM     32  CD1 LEU A  12       0.124   0.469  15.483  0.00  0.00    +0.000 C 
ENDBRANCH  29  30
ENDBRANCH  26  29
ENDBRANCH  24  26
ENDBRANCH  21  22
BRANCH  21  33
ATOM     33  CB  MET A  11       5.422  -3.403  10.889  0.00  0.00    +0.041 C 
BRANCH  33  34
ATOM     34  CG  MET A  11       5.693  -3.606   9.414  0.00  0.00    +0.060 C 
BRANCH  34  35
ATOM     35  SD  MET A  11       4.900  -5.109   8.916  0.00  0.00    -0.139 S 
ATOM     36  CE  MET A  11       3.183  -4.539   8.914  0.00  0.00    +0.069 C 
ENDBRANCH  34  35
ENDBRANCH  33  34
ENDBRANCH  21  33
ENDBRANCH  18  21
ENDBRANCH  16  17
BRANCH  16  37
ATOM     37  CB  VAL A  10       9.442   0.827  11.030  0.00  0.00    +0.027 C 
ATOM     38  CG2 VAL A  10       8.930   0.813  12.478  0.00  0.00    +0.002 C 
ATOM     39  CG1 VAL A  10      10.952   0.974  11.013  0.00  0.00    +0.002 C 
ENDBRANCH  16  37
ENDBRANCH  14  16
ENDBRANCH  11  12
BRANCH  11  40
ATOM     40  CB  ARG A   9       9.204  -1.789   6.154  0.00  0.00    +0.033 C 
BRANCH  40  41
ATOM     41  CG  ARG A   9       8.634  -3.068   6.733  0.00  0.00    +0.045 C 
BRANCH  41  42
ATOM     42  CD  ARG A   9       7.279  -3.423   6.106  0.00  0.00    +0.174 C 
BRANCH  42  43
ATOM     43  NE  ARG A   9       7.407  -3.671   4.672  0.00  0.00    -0.265 N 
ATOM     44  HE  ARG A   9       8.313  -4.048   4.326  0.00  0.00    +0.259 HD
ATOM     45  CZ  ARG A   9       6.447  -3.449   3.776  0.00  0.00    +0.342 C 
ATOM     46  NH2 ARG A   9       5.262  -2.962   4.152  0.00  0.00    -0.292 N 
ATOM     47 HH21 ARG A   9       5.081  -2.752   5.154  0.00  0.00    +0.255 HD
ATOM     48 HH22 ARG A   9       4.520  -2.793   3.443  0.00  0.00    +0.255 HD
ATOM     49  NH1 ARG A   9       6.679  -3.704   2.498  0.00  0.00    -0.292 N 
ATOM     50 HH11 ARG A   9       7.604  -4.074   2.201  0.00  0.00    +0.255 HD
ATOM     51 HH12 ARG A   9       5.936  -3.534   1.791  0.00  0.00    +0.255 HD
ENDBRANCH  42  43
ENDBRANCH  41  42
ENDBRANCH  40  41
ENDBRANCH  11  40
ENDBRANCH   8  11
ENDBRANCH   6   7
ENDBRANCH   4   6
ENDBRANCH   1   2
BRANCH   1  53
ATOM     52  C   SER A   6      15.950  -0.302   1.190  0.00  0.00    +0.243 C 
ATOM     53  N   PHE A   7      16.123  -0.637   2.468  0.00  0.00    -0.297 N 
ATOM     54  H   PHE A   7      16.027   0.080   3.215  0.00  0.00    +0.150 HD
ATOM     55  O   SER A   6      16.061  -1.120   0.287  0.00  0.00    -0.273 OA
BRANCH  52  56
ATOM     56  CA  SER A   6      15.610   1.153   0.865  0.00  0.00    +0.178 C 
BRANCH  56  58
ATOM     57  C   GLY A   5      13.661   1.683   2.255  0.00  0.00    +0.243 C 
ATOM     58  N   SER A   6      14.946   1.874   1.952  0.00  0.00    -0.295 N 
ATOM     59  H   SER A   6      15.496   2.560   2.508  0.00  0.00    +0.150 HD
ATOM     60  O   GLY A   5      12.941   0.858   1.687  0.00  0.00    -0.273 OA
BRANCH  57  61
ATOM     61  CA  GLY A   5      13.115   2.525   3.383  0.00  0.00    +0.176 C 
BRANCH  61  64
ATOM     62  C   THR A   4      10.795   2.701   4.099  0.00  0.00    +0.243 C 
ATOM     63  O   THR A   4      10.800   3.928   4.004  0.00  0.00    -0.273 OA
ATOM     64  N   GLY A   5      11.864   1.950   3.867  0.00  0.00    -0.295 N 
ATOM     65  H   GLY A   5      11.809   0.925   4.034  0.00  0.00    +0.150 HD
BRANCH  62  66
ATOM     66  CA  THR A   4       9.533   1.966   4.507  0.00  0.00    +0.176 C 
BRANCH  66  69
ATOM     67  C   GLY A   3       8.220   2.509   6.499  0.00  0.00    +0.243 C 
ATOM     68  O   GLY A   3       8.321   1.368   6.962  0.00  0.00    -0.273 OA
ATOM     69  N   THR A   4       8.744   2.874   5.334  0.00  0.00    -0.295 N 
ATOM     70  H   THR A   4       8.586   3.845   4.998  0.00  0.00    +0.150 HD
BRANCH  67  71
ATOM     71  CA  GLY A   3       7.453   3.580   7.244  0.00  0.00    +0.176 C 
BRANCH  71  74
ATOM     72  C   LEU A   2       5.733   3.701   8.968  0.00  0.00    +0.241 C 
ATOM     73  O   LEU A   2       5.692   4.924   8.906  0.00  0.00    -0.273 OA
ATOM     74  N   GLY A   3       6.572   2.973   8.238  0.00  0.00    -0.295 N 
ATOM     75  H   GLY A   3       6.602   1.943   8.379  0.00  0.00    +0.150 HD
BRANCH  72  76
ATOM     76  CA  LEU A   2       4.819   2.933   9.927  0.00  0.00    +0.149 C 
BRANCH  76  78
ATOM     77  C   THR A   1       3.386   1.310   8.765  0.00  0.00    +0.241 C 
ATOM     78  N   LEU A   2       4.507   1.595   9.431  0.00  0.00    -0.297 N 
ATOM     79  H   LEU A   2       5.189   0.830   9.605  0.00  0.00    +0.150 HD
ATOM     80  O   THR A   1       2.485   2.138   8.546  0.00  0.00    -0.274 OA
BRANCH  77  81
ATOM     81  CA  THR A   1       3.253  -0.140   8.289  0.00  0.00    +0.172 C 
BRANCH  81  82
ATOM     82  CB  THR A   1       3.520  -0.268   6.764  0.00  0.00    +0.135 C 
ATOM     83  CG2 THR A   1       4.928   0.203   6.387  0.00  0.00    +0.034 C 
BRANCH  82  84
ATOM     84  OG1 THR A   1       3.383  -1.642   6.399  0.00  0.00    -0.383 OA
ATOM     85  HG1 THR A   1       3.550  -1.743   5.428  0.00  0.00    +0.210 HD
ENDBRANCH  82  84
ENDBRANCH  81  82
BRANCH  81  86
ATOM     86  N   THR A   1       1.939  -0.660   8.611  0.00  0.00    -0.236 NA
ATOM     87  H   THR A   1       1.189  -0.583   7.895  0.00  0.00    +0.142 HD
ENDBRANCH  81  86
ENDBRANCH  77  81
ENDBRANCH  76  78
BRANCH  76  88
ATOM     88  CB  LEU A   2       5.462   2.848  11.320  0.00  0.00    +0.029 C 
BRANCH  88  89
ATOM     89  CG  LEU A   2       4.594   2.293  12.459  0.00  0.00    +0.002 C 
ATOM     90  CD2 LEU A   2       5.413   2.133  13.724  0.00  0.00    +0.000 C 
ATOM     91  CD1 LEU A   2       3.376   3.182  12.763  0.00  0.00    +0.000 C 
ENDBRANCH  88  89
ENDBRANCH  76  88
ENDBRANCH  72  76
ENDBRANCH  71  74
ENDBRANCH  67  71
ENDBRANCH  66  69
BRANCH  66  92
ATOM     92  CB  THR A   4       8.807   1.581   3.203  0.00  0.00    +0.137 C 
ATOM     93  CG2 THR A   4       7.452   0.905   3.475  0.00  0.00    +0.034 C 
BRANCH  92  94
ATOM     94  OG1 THR A   4       8.612   2.764   2.426  0.00  0.00    -0.382 OA
ATOM     95  HG1 THR A   4       9.491   3.169   2.217  0.00  0.00    +0.210 HD
ENDBRANCH  92  94
ENDBRANCH  66  92
ENDBRANCH  62  66
ENDBRANCH  61  64
ENDBRANCH  57  61
ENDBRANCH  56  58
BRANCH  56  96
ATOM     96  CB  SER A   6      16.870   1.912   0.415  0.00  0.00    +0.166 C 
BRANCH  96  97
ATOM     97  OG  SER A   6      17.773   2.101   1.505  0.00  0.00    -0.380 OA
ATOM     98  H   SER A   6      18.573   2.591   1.188  0.00  0.00    +0.211 HD
ENDBRANCH  96  97
ENDBRANCH  56  96
ENDBRANCH  52  56
ENDBRANCH   1  53
BRANCH   1  99
ATOM     99  CB  PHE A   7      17.966  -2.235   3.055  0.00  0.00    +0.055 C 
BRANCH  99 100
ATOM    100  CG  PHE A   7      18.579  -1.332   4.120  0.00  0.00    -0.020 A 
ATOM    101  CD2 PHE A   7      18.537  -1.688   5.469  0.00  0.00    -0.004 A 
ATOM    102  CE2 PHE A   7      19.128  -0.879   6.462  0.00  0.00    -0.000 A 
ATOM    103  CZ  PHE A   7      19.792   0.296   6.088  0.00  0.00    -0.000 A 
ATOM    104  CE1 PHE A   7      19.845   0.656   4.729  0.00  0.00    -0.000 A 
ATOM    105  CD1 PHE A   7      19.249  -0.167   3.756  0.00  0.00    -0.004 A 
ENDBRANCH  99 100
ENDBRANCH   1  99
TORSDOF 44
REMARK  Name = ../refined-set-2016/3ag9/3ag9_pocket.pdb
REMARK  313 active torsions:
REMARK  status: ('A' for Active; 'I' for Inactive)
REMARK    1  A    between atoms: _1  and  _3
REMARK    2  A    between atoms: _3  and  _4
REMARK    3  A    between atoms: _3  and  _6
REMARK    4  A    between atoms: _6  and  _7
REMARK    5  A    between atoms: _10  and  _12
REMARK    6  A    between atoms: _12  and  _13
REMARK    7  A    between atoms: _12  and  _15
REMARK    8  A    between atoms: _15  and  _16
REMARK    9  A    between atoms: _19  and  _21
REMARK   10  A    between atoms: _21  and  _22
REMARK   11  A    between atoms: _24  and  _26
REMARK   12  A    between atoms: _26  and  _27
REMARK   13  A    between atoms: _26  and  _29
REMARK   14  A    between atoms: _29  and  _30
REMARK   15  A    between atoms: _33  and  _35
REMARK   16  A    between atoms: _35  and  _36
REMARK   17  A    between atoms: _38  and  _40
REMARK   18  A    between atoms: _40  and  _41
REMARK   19  A    between atoms: _40  and  _43
REMARK   20  A    between atoms: _43  and  _44
REMARK   21  A    between atoms: _46  and  _48
REMARK   22  A    between atoms: _48  and  _49
REMARK   23  A    between atoms: _48  and  _51
REMARK   24  A    between atoms: _51  and  _52
REMARK   25  A    between atoms: _58  and  _60
REMARK   26  A    between atoms: _60  and  _61
REMARK   27  A    between atoms: _63  and  _65
REMARK   28  A    between atoms: _65  and  _66
REMARK   29  A    between atoms: _65  and  _68
REMARK   30  A    between atoms: _68  and  _69
REMARK   31  A    between atoms: _69  and  _70
REMARK   32  A    between atoms: _70  and  _71
REMARK   33  A    between atoms: _80  and  _82
REMARK   34  A    between atoms: _82  and  _83
REMARK   35  A    between atoms: _82  and  _85
REMARK   36  A    between atoms: _88  and  _90
REMARK   37  A    between atoms: _90  and  _91
REMARK   38  A    between atoms: _90  and  _93
REMARK   39  A    between atoms: _93  and  _94
REMARK   40  A    between atoms: _94  and  _95
REMARK   41  A    between atoms: _97  and  _99
REMARK   42  A    between atoms: _99  and  _100
REMARK   43  A    between atoms: _99  and  _102
REMARK   44  A    between atoms: _102  and  _103
REMARK   45  A    between atoms: _106  and  _108
REMARK   46  A    between atoms: _108  and  _109
REMARK   47  A    between atoms: _108  and  _111
REMARK   48  A    between atoms: _111  and  _112
REMARK   49  A    between atoms: _117  and  _118
REMARK   50  A    between atoms: _120  and  _122
REMARK   51  A    between atoms: _122  and  _123
REMARK   52  A    between atoms: _126  and  _128
REMARK   53  A    between atoms: _128  and  _129
REMARK   54  A    between atoms: _128  and  _131
REMARK   55  A    between atoms: _131  and  _132
REMARK   56  A    between atoms: _132  and  _133
REMARK   57  A    between atoms: _135  and  _137
REMARK   58  A    between atoms: _137  and  _138
REMARK   59  A    between atoms: _137  and  _140
REMARK   60  A    between atoms: _140  and  _141
REMARK   61  A    between atoms: _141  and  _142
REMARK   62  A    between atoms: _142  and  _143
REMARK   63  A    between atoms: _143  and  _144
REMARK   64  A    between atoms: _148  and  _150
REMARK   65  A    between atoms: _150  and  _151
REMARK   66  A    between atoms: _150  and  _153
REMARK   67  A    between atoms: _153  and  _154
REMARK   68  A    between atoms: _157  and  _159
REMARK   69  A    between atoms: _159  and  _160
REMARK   70  A    between atoms: _159  and  _162
REMARK   71  A    between atoms: _162  and  _163
REMARK   72  A    between atoms: _166  and  _168
REMARK   73  A    between atoms: _168  and  _169
REMARK   74  A    between atoms: _168  and  _171
REMARK   75  A    between atoms: _171  and  _172
REMARK   76  A    between atoms: _175  and  _177
REMARK   77  A    between atoms: _177  and  _178
REMARK   78  A    between atoms: _177  and  _180
REMARK   79  A    between atoms: _180  and  _181
REMARK   80  A    between atoms: _181  and  _182
REMARK   81  A    between atoms: _182  and  _183
REMARK   82  A    between atoms: _183  and  _184
REMARK   83  A    between atoms: _188  and  _190
REMARK   84  A    between atoms: _190  and  _191
REMARK   85  A    between atoms: _190  and  _193
REMARK   86  A    between atoms: _196  and  _198
REMARK   87  A    between atoms: _198  and  _199
REMARK   88  A    between atoms: _198  and  _201
REMARK   89  A    between atoms: _201  and  _202
REMARK   90  A    between atoms: _205  and  _207
REMARK   91  A    between atoms: _207  and  _208
REMARK   92  A    between atoms: _207  and  _210
REMARK   93  A    between atoms: _210  and  _211
REMARK   94  A    between atoms: _211  and  _212
REMARK   95  A    between atoms: _217  and  _219
REMARK   96  A    between atoms: _219  and  _220
REMARK   97  A    between atoms: _219  and  _222
REMARK   98  A    between atoms: _222  and  _223
REMARK   99  A    between atoms: _228  and  _230
REMARK  100  A    between atoms: _230  and  _231
REMARK  101  A    between atoms: _230  and  _233
REMARK  102  A    between atoms: _233  and  _234
REMARK  103  A    between atoms: _237  and  _239
REMARK  104  A    between atoms: _239  and  _240
REMARK  105  A    between atoms: _239  and  _242
REMARK  106  A    between atoms: _242  and  _243
REMARK  107  A    between atoms: _243  and  _244
REMARK  108  A    between atoms: _247  and  _249
REMARK  109  A    between atoms: _249  and  _250
REMARK  110  A    between atoms: _249  and  _252
REMARK  111  A    between atoms: _255  and  _257
REMARK  112  A    between atoms: _257  and  _258
REMARK  113  A    between atoms: _257  and  _260
REMARK  114  A    between atoms: _260  and  _261
REMARK  115  A    between atoms: _261  and  _262
REMARK  116  A    between atoms: _262  and  _263
REMARK  117  A    between atoms: _263  and  _264
REMARK  118  A    between atoms: _268  and  _270
REMARK  119  A    between atoms: _270  and  _271
REMARK  120  A    between atoms: _270  and  _273
REMARK  121  A    between atoms: _273  and  _274
REMARK  122  A    between atoms: _277  and  _279
REMARK  123  A    between atoms: _279  and  _280
REMARK  124  A    between atoms: _279  and  _282
REMARK  125  A    between atoms: _282  and  _283
REMARK  126  A    between atoms: _283  and  _284
REMARK  127  A    between atoms: _286  and  _288
REMARK  128  A    between atoms: _288  and  _289
REMARK  129  A    between atoms: _288  and  _291
REMARK  130  A    between atoms: _294  and  _296
REMARK  131  A    between atoms: _296  and  _297
REMARK  132  A    between atoms: _296  and  _299
REMARK  133  A    between atoms: _299  and  _300
REMARK  134  A    between atoms: _300  and  _301
REMARK  135  A    between atoms: _303  and  _305
REMARK  136  A    between atoms: _305  and  _306
REMARK  137  A    between atoms: _305  and  _308
REMARK  138  A    between atoms: _308  and  _309
REMARK  139  A    between atoms: _309  and  _310
REMARK  140  A    between atoms: _313  and  _315
REMARK  141  A    between atoms: _315  and  _316
REMARK  142  A    between atoms: _315  and  _318
REMARK  143  A    between atoms: _318  and  _319
REMARK  144  A    between atoms: _324  and  _325
REMARK  145  A    between atoms: _327  and  _329
REMARK  146  A    between atoms: _329  and  _330
REMARK  147  A    between atoms: _329  and  _332
REMARK  148  A    between atoms: _336  and  _337
REMARK  149  A    between atoms: _342  and  _344
REMARK  150  A    between atoms: _344  and  _345
REMARK  151  A    between atoms: _347  and  _349
REMARK  152  A    between atoms: _349  and  _350
REMARK  153  A    between atoms: _352  and  _354
REMARK  154  A    between atoms: _354  and  _355
REMARK  155  A    between atoms: _354  and  _357
REMARK  156  A    between atoms: _357  and  _358
REMARK  157  A    between atoms: _358  and  _359
REMARK  158  A    between atoms: _362  and  _364
REMARK  159  A    between atoms: _364  and  _365
REMARK  160  A    between atoms: _364  and  _367
REMARK  161  A    between atoms: _367  and  _368
REMARK  162  A    between atoms: _368  and  _369
REMARK  163  A    between atoms: _371  and  _373
REMARK  164  A    between atoms: _373  and  _374
REMARK  165  A    between atoms: _373  and  _376
REMARK  166  A    between atoms: _376  and  _377
REMARK  167  A    between atoms: _383  and  _385
REMARK  168  A    between atoms: _385  and  _386
REMARK  169  A    between atoms: _385  and  _388
REMARK  170  A    between atoms: _388  and  _389
REMARK  171  A    between atoms: _391  and  _393
REMARK  172  A    between atoms: _393  and  _394
REMARK  173  A    between atoms: _393  and  _396
REMARK  174  A    between atoms: _396  and  _397
REMARK  175  A    between atoms: _400  and  _402
REMARK  176  A    between atoms: _402  and  _403
REMARK  177  A    between atoms: _402  and  _405
REMARK  178  A    between atoms: _405  and  _406
REMARK  179  A    between atoms: _406  and  _407
REMARK  180  A    between atoms: _407  and  _408
REMARK  181  A    between atoms: _417  and  _419
REMARK  182  A    between atoms: _419  and  _420
REMARK  183  A    between atoms: _419  and  _422
REMARK  184  A    between atoms: _422  and  _423
REMARK  185  A    between atoms: _428  and  _429
REMARK  186  A    between atoms: _431  and  _433
REMARK  187  A    between atoms: _433  and  _434
REMARK  188  A    between atoms: _433  and  _436
REMARK  189  A    between atoms: _436  and  _437
REMARK  190  A    between atoms: _437  and  _438
REMARK  191  A    between atoms: _438  and  _439
REMARK  192  A    between atoms: _448  and  _450
REMARK  193  A    between atoms: _450  and  _451
REMARK  194  A    between atoms: _450  and  _453
REMARK  195  A    between atoms: _453  and  _454
REMARK  196  A    between atoms: _457  and  _459
REMARK  197  A    between atoms: _459  and  _460
REMARK  198  A    between atoms: _459  and  _462
REMARK  199  A    between atoms: _462  and  _463
REMARK  200  A    between atoms: _466  and  _468
REMARK  201  A    between atoms: _468  and  _469
REMARK  202  A    between atoms: _468  and  _471
REMARK  203  A    between atoms: _471  and  _472
REMARK  204  A    between atoms: _472  and  _473
REMARK  205  A    between atoms: _473  and  _474
REMARK  206  A    between atoms: _474  and  _475
REMARK  207  A    between atoms: _480  and  _481
REMARK  208  A    between atoms: _486  and  _488
REMARK  209  A    between atoms: _488  and  _489
REMARK  210  A    between atoms: _488  and  _491
REMARK  211  A    between atoms: _491  and  _492
REMARK  212  A    between atoms: _492  and  _493
REMARK  213  A    between atoms: _496  and  _498
REMARK  214  A    between atoms: _498  and  _499
REMARK  215  A    between atoms: _498  and  _501
REMARK  216  A    between atoms: _501  and  _502
REMARK  217  A    between atoms: _507  and  _509
REMARK  218  A    between atoms: _509  and  _510
REMARK  219  A    between atoms: _509  and  _512
REMARK  220  A    between atoms: _512  and  _513
REMARK  221  A    between atoms: _516  and  _518
REMARK  222  A    between atoms: _518  and  _519
REMARK  223  A    between atoms: _518  and  _521
REMARK  224  A    between atoms: _521  and  _522
REMARK  225  A    between atoms: _525  and  _527
REMARK  226  A    between atoms: _527  and  _528
REMARK  227  A    between atoms: _527  and  _530
REMARK  228  A    between atoms: _530  and  _531
REMARK  229  A    between atoms: _534  and  _536
REMARK  230  A    between atoms: _536  and  _537
REMARK  231  A    between atoms: _536  and  _539
REMARK  232  A    between atoms: _539  and  _540
REMARK  233  A    between atoms: _543  and  _545
REMARK  234  A    between atoms: _545  and  _546
REMARK  235  A    between atoms: _545  and  _548
REMARK  236  A    between atoms: _548  and  _549
REMARK  237  A    between atoms: _549  and  _550
REMARK  238  A    between atoms: _555  and  _557
REMARK  239  A    between atoms: _557  and  _558
REMARK  240  A    between atoms: _557  and  _560
REMARK  241  A    between atoms: _563  and  _565
REMARK  242  A    between atoms: _565  and  _566
REMARK  243  A    between atoms: _565  and  _568
REMARK  244  A    between atoms: _568  and  _569
REMARK  245  A    between atoms: _572  and  _574
REMARK  246  A    between atoms: _574  and  _575
REMARK  247  A    between atoms: _574  and  _577
REMARK  248  A    between atoms: _577  and  _578
REMARK  249  A    between atoms: _581  and  _583
REMARK  250  A    between atoms: _583  and  _584
REMARK  251  A    between atoms: _583  and  _586
REMARK  252  A    between atoms: _586  and  _587
REMARK  253  A    between atoms: _593  and  _595
REMARK  254  A    between atoms: _595  and  _596
REMARK  255  A    between atoms: _598  and  _600
REMARK  256  A    between atoms: _600  and  _601
REMARK  257  A    between atoms: _600  and  _603
REMARK  258  A    between atoms: _603  and  _604
REMARK  259  A    between atoms: _610  and  _612
REMARK  260  A    between atoms: _612  and  _613
REMARK  261  A    between atoms: _612  and  _615
REMARK  262  A    between atoms: _617  and  _619
REMARK  263  A    between atoms: _619  and  _620
REMARK  264  A    between atoms: _622  and  _624
REMARK  265  A    between atoms: _624  and  _625
REMARK  266  A    between atoms: _624  and  _627
REMARK  267  A    between atoms: _627  and  _628
REMARK  268  A    between atoms: _632  and  _633
REMARK  269  A    between atoms: _638  and  _640
REMARK  270  A    between atoms: _640  and  _641
REMARK  271  A    between atoms: _640  and  _643
REMARK  272  A    between atoms: _643  and  _644
REMARK  273  A    between atoms: _644  and  _645
REMARK  274  A    between atoms: _648  and  _650
REMARK  275  A    between atoms: _650  and  _651
REMARK  276  A    between atoms: _650  and  _653
REMARK  277  A    between atoms: _653  and  _654
REMARK  278  A    between atoms: _659  and  _660
REMARK  279  A    between atoms: _662  and  _664
REMARK  280  A    between atoms: _664  and  _665
REMARK  281  A    between atoms: _664  and  _667
REMARK  282  A    between atoms: _670  and  _672
REMARK  283  A    between atoms: _672  and  _673
REMARK  284  A    between atoms: _672  and  _675
REMARK  285  A    between atoms: _675  and  _676
REMARK  286  A    between atoms: _679  and  _681
REMARK  287  A    between atoms: _681  and  _682
REMARK  288  A    between atoms: _681  and  _684
REMARK  289  A    between atoms: _684  and  _685
REMARK  290  A    between atoms: _685  and  _686
REMARK  291  A    between atoms: _689  and  _691
REMARK  292  A    between atoms: _691  and  _692
REMARK  293  A    between atoms: _694  and  _696
REMARK  294  A    between atoms: _696  and  _697
REMARK  295  A    between atoms: _696  and  _699
REMARK  296  A    between atoms: _699  and  _700
REMARK  297  A    between atoms: _705  and  _706
REMARK  298  A    between atoms: _709  and  _710
REMARK  299  A    between atoms: _716  and  _717
REMARK  300  A    between atoms: _722  and  _724
REMARK  301  A    between atoms: _724  and  _725
REMARK  302  A    between atoms: _724  and  _727
REMARK  303  A    between atoms: _727  and  _728
REMARK  304  A    between atoms: _734  and  _736
REMARK  305  A    between atoms: _736  and  _737
REMARK  306  A    between atoms: _736  and  _739
REMARK  307  A    between atoms: _739  and  _740
REMARK  308  A    between atoms: _746  and  _748
REMARK  309  A    between atoms: _748  and  _749
REMARK  310  A    between atoms: _752  and  _754
REMARK  311  A    between atoms: _754  and  _755
REMARK  312  A    between atoms: _754  and  _757
REMARK  313  A    between atoms: _757  and  _758
REMARK                            x       y       z     vdW  Elec       q    Type
REMARK                         _______ _______ _______ _____ _____    ______ ____
ROOT
ATOM      1  CA  LYS A   4      11.966  -2.872  12.109  0.00  0.00    +0.149 C 
ENDROOT
BRANCH   1   2
ATOM      2  C   LYS A   4      12.402  -4.179  11.465  0.00  0.00    +0.241 C 
ATOM      3  O   LYS A   4      13.054  -5.000  12.108  0.00  0.00    -0.273 OA
ATOM      4  N   ILE A   5      12.011  -4.367  10.206  0.00  0.00    -0.297 N 
ATOM      5  H   ILE A   5      11.482  -3.607   9.732  0.00  0.00    +0.150 HD
BRANCH   4   6
ATOM      6  CA  ILE A   5      12.290  -5.590   9.460  0.00  0.00    +0.149 C 
BRANCH   6   7
ATOM      7  C   ILE A   5      13.278  -5.240   8.370  0.00  0.00    +0.241 C 
ATOM      8  N   LEU A   6      14.459  -5.834   8.435  0.00  0.00    -0.297 N 
ATOM      9  H   LEU A   6      14.651  -6.501   9.209  0.00  0.00    +0.150 HD
ATOM     10  O   ILE A   5      12.986  -4.413   7.516  0.00  0.00    -0.273 OA
BRANCH   8  11
ATOM     11  CA  LEU A   6      15.499  -5.572   7.441  0.00  0.00    +0.149 C 
BRANCH  11  12
ATOM     12  C   LEU A   6      15.676  -6.785   6.545  0.00  0.00    +0.241 C 
ATOM     13  O   LEU A   6      15.873  -7.895   7.029  0.00  0.00    -0.273 OA
ATOM     14  N   ASP A   7      15.603  -6.551   5.244  0.00  0.00    -0.298 N 
ATOM     15  H   ASP A   7      15.369  -5.591   4.920  0.00  0.00    +0.150 HD
BRANCH  14  16
ATOM     16  CA  ASP A   7      15.839  -7.594   4.245  0.00  0.00    +0.148 C 
BRANCH  16  17
ATOM     17  C   ASP A   7      17.322  -7.870   4.157  0.00  0.00    +0.227 C 
ATOM     18  O   ASP A   7      18.076  -6.998   3.749  0.00  0.00    -0.286 OA
ENDBRANCH  16  17
BRANCH  16  19
ATOM     19  CB  ASP A   7      15.312  -7.107   2.892  0.00  0.00    +0.142 C 
BRANCH  19  20
ATOM     20  CG  ASP A   7      15.420  -8.161   1.805  0.00  0.00    +0.367 C 
ATOM     21  OD2 ASP A   7      16.516  -8.717   1.576  0.00  0.00    -0.246 OA
ATOM     22  OD1 ASP A   7      14.386  -8.429   1.185  0.00  0.00    -0.246 OA
ENDBRANCH  19  20
ENDBRANCH  16  19
ENDBRANCH  14  16
ENDBRANCH  11  12
BRANCH  11  23
ATOM     23  CB  LEU A   6      16.831  -5.209   8.108  0.00  0.00    +0.029 C 
BRANCH  23  24
ATOM     24  CG  LEU A   6      16.754  -4.033   9.104  0.00  0.00    +0.002 C 
ATOM     25  CD2 LEU A   6      18.113  -3.790   9.767  0.00  0.00    +0.000 C 
ATOM     26  CD1 LEU A   6      16.237  -2.742   8.458  0.00  0.00    +0.000 C 
ENDBRANCH  23  24
ENDBRANCH  11  23
ENDBRANCH   8  11
ENDBRANCH   6   7
BRANCH   6  27
ATOM     27  CB  ILE A   5      10.994  -6.118   8.810  0.00  0.00    +0.027 C 
ATOM     28  CG2 ILE A   5      11.261  -7.413   8.011  0.00  0.00    +0.002 C 
BRANCH  27  29
ATOM     29  CG1 ILE A   5       9.945  -6.352   9.896  0.00  0.00    +0.002 C 
ATOM     30  CD1 ILE A   5       8.602  -5.902   9.514  0.00  0.00    +0.000 C 
ENDBRANCH  27  29
ENDBRANCH   6  27
ENDBRANCH   4   6
ENDBRANCH   1   2
BRANCH   1  32
ATOM     31  C   MET A   3       9.844  -3.307  13.221  0.00  0.00    +0.241 C 
ATOM     32  N   LYS A   4      11.171  -3.197  13.295  0.00  0.00    -0.297 N 
ATOM     33  H   LYS A   4      11.648  -3.344  14.208  0.00  0.00    +0.150 HD
ATOM     34  O   MET A   3       9.204  -3.092  12.179  0.00  0.00    -0.273 OA
BRANCH  31  35
ATOM     35  CA  MET A   3       9.131  -3.693  14.520  0.00  0.00    +0.149 C 
BRANCH  35  38
ATOM     36  C   ALA A   2       8.586  -1.821  15.973  0.00  0.00    +0.241 C 
ATOM     37  O   ALA A   2       9.664  -1.921  16.568  0.00  0.00    -0.273 OA
ATOM     38  N   MET A   3       8.236  -2.626  14.973  0.00  0.00    -0.297 N 
ATOM     39  H   MET A   3       7.315  -2.496  14.507  0.00  0.00    +0.150 HD
BRANCH  36  40
ATOM     40  CA  ALA A   2       7.581  -0.759  16.396  0.00  0.00    +0.149 C 
ATOM     41  CB  ALA A   2       8.210   0.635  16.334  0.00  0.00    +0.031 C 
BRANCH  40  43
ATOM     42  C   TYR A   1       6.065  -1.779  17.999  0.00  0.00    +0.239 C 
ATOM     43  N   ALA A   2       7.167  -1.078  17.747  0.00  0.00    -0.297 N 
ATOM     44  H   ALA A   2       7.749  -0.749  18.544  0.00  0.00    +0.150 HD
ATOM     45  O   TYR A   1       5.202  -2.019  17.143  0.00  0.00    -0.274 OA
BRANCH  42  46
ATOM     46  CA  TYR A   1       5.907  -2.277  19.424  0.00  0.00    +0.149 C 
BRANCH  46  47
ATOM     47  N   TYR A   1       4.503  -2.499  19.757  0.00  0.00    -0.238 NA
ATOM     48  H   TYR A   1       3.846  -2.764  18.996  0.00  0.00    +0.142 HD
ENDBRANCH  46  47
BRANCH  46  49
ATOM     49  CB  TYR A   1       6.696  -3.579  19.550  0.00  0.00    +0.053 C 
BRANCH  49  50
ATOM     50  CG  TYR A   1       6.725  -4.179  20.932  0.00  0.00    -0.020 A 
ATOM     51  CD2 TYR A   1       7.678  -3.769  21.867  0.00  0.00    -0.001 A 
ATOM     52  CE2 TYR A   1       7.712  -4.315  23.144  0.00  0.00    +0.036 A 
ATOM     53  CZ  TYR A   1       6.795  -5.275  23.497  0.00  0.00    +0.134 A 
ATOM     54  CE1 TYR A   1       5.833  -5.712  22.586  0.00  0.00    +0.036 A 
ATOM     55  CD1 TYR A   1       5.808  -5.164  21.311  0.00  0.00    -0.001 A 
BRANCH  53  56
ATOM     56  OH  TYR A   1       6.849  -5.810  24.760  0.00  0.00    -0.506 OA
ATOM     57  HH  TYR A   1       7.587  -5.386  25.266  0.00  0.00    +0.292 HD
ENDBRANCH  53  56
ENDBRANCH  49  50
ENDBRANCH  46  49
ENDBRANCH  42  46
ENDBRANCH  40  43
ENDBRANCH  36  40
ENDBRANCH  35  38
BRANCH  35  58
ATOM     58  CB  MET A   3       8.382  -5.025  14.382  0.00  0.00    +0.041 C 
BRANCH  58  59
ATOM     59  CG  MET A   3       9.236  -6.171  13.809  0.00  0.00    +0.060 C 
BRANCH  59  60
ATOM     60  SD  MET A   3       8.296  -7.703  13.603  0.00  0.00    -0.139 S 
ATOM     61  CE  MET A   3       7.276  -7.285  12.248  0.00  0.00    +0.069 C 
ENDBRANCH  59  60
ENDBRANCH  58  59
ENDBRANCH  35  58
ENDBRANCH  31  35
ENDBRANCH   1  32
BRANCH   1  62
ATOM     62  CB  LYS A   4      13.175  -1.971  12.449  0.00  0.00    +0.029 C 
BRANCH  62  63
ATOM     63  CG  LYS A   4      14.019  -1.581  11.214  0.00  0.00    +0.000 C 
BRANCH  63  64
ATOM     64  CD  LYS A   4      14.756  -0.225  11.369  0.00  0.00    -0.024 C 
BRANCH  64  65
ATOM     65  CE  LYS A   4      16.034  -0.339  12.215  0.00  0.00    -0.086 C 
BRANCH  65  66
ATOM     66  NZ  LYS A   4      16.798   0.963  12.314  0.00  0.00    +0.380 N 
ATOM     67  HZ1 LYS A   4      17.648   0.821  12.896  0.00  0.00    -0.089 HD
ATOM     68  HZ2 LYS A   4      16.193   1.686  12.752  0.00  0.00    -0.089 HD
ATOM     69  HZ3 LYS A   4      17.077   1.273  11.361  0.00  0.00    -0.089 HD
ENDBRANCH  65  66
ENDBRANCH  64  65
ENDBRANCH  63  64
ENDBRANCH  62  63
ENDBRANCH   1  62
TORSDOF 31
REMARK  Name = ../refined-set-2016/3ag9/3ag9_pocket.pdb
REMARK  313 active torsions:
REMARK  status: ('A' for Active; 'I' for Inactive)
REMARK    1  A    between atoms: _1  and  _3
REMARK    2  A    between atoms: _3  and  _4
REMARK    3  A    between atoms: _3  and  _6
REMARK    4  A    between atoms: _6  and  _7
REMARK    5  A    between atoms: _10  and  _12
REMARK    6  A    between atoms: _12  and  _13
REMARK    7  A    between atoms: _12  and  _15
REMARK    8  A    between atoms: _15  and  _16
REMARK    9  A    between atoms: _19  and  _21
REMARK   10  A    between atoms: _21  and  _22
REMARK   11  A    between atoms: _24  and  _26
REMARK   12  A    between atoms: _26  and  _27
REMARK   13  A    between atoms: _26  and  _29
REMARK   14  A    between atoms: _29  and  _30
REMARK   15  A    between atoms: _33  and  _35
REMARK   16  A    between atoms: _35  and  _36
REMARK   17  A    between atoms: _38  and  _40
REMARK   18  A    between atoms: _40  and  _41
REMARK   19  A    between atoms: _40  and  _43
REMARK   20  A    between atoms: _43  and  _44
REMARK   21  A    between atoms: _46  and  _48
REMARK   22  A    between atoms: _48  and  _49
REMARK   23  A    between atoms: _48  and  _51
REMARK   24  A    between atoms: _51  and  _52
REMARK   25  A    between atoms: _58  and  _60
REMARK   26  A    between atoms: _60  and  _61
REMARK   27  A    between atoms: _63  and  _65
REMARK   28  A    between atoms: _65  and  _66
REMARK   29  A    between atoms: _65  and  _68
REMARK   30  A    between atoms: _68  and  _69
REMARK   31  A    between atoms: _69  and  _70
REMARK   32  A    between atoms: _70  and  _71
REMARK   33  A    between atoms: _80  and  _82
REMARK   34  A    between atoms: _82  and  _83
REMARK   35  A    between atoms: _82  and  _85
REMARK   36  A    between atoms: _88  and  _90
REMARK   37  A    between atoms: _90  and  _91
REMARK   38  A    between atoms: _90  and  _93
REMARK   39  A    between atoms: _93  and  _94
REMARK   40  A    between atoms: _94  and  _95
REMARK   41  A    between atoms: _97  and  _99
REMARK   42  A    between atoms: _99  and  _100
REMARK   43  A    between atoms: _99  and  _102
REMARK   44  A    between atoms: _102  and  _103
REMARK   45  A    between atoms: _106  and  _108
REMARK   46  A    between atoms: _108  and  _109
REMARK   47  A    between atoms: _108  and  _111
REMARK   48  A    between atoms: _111  and  _112
REMARK   49  A    between atoms: _117  and  _118
REMARK   50  A    between atoms: _120  and  _122
REMARK   51  A    between atoms: _122  and  _123
REMARK   52  A    between atoms: _126  and  _128
REMARK   53  A    between atoms: _128  and  _129
REMARK   54  A    between atoms: _128  and  _131
REMARK   55  A    between atoms: _131  and  _132
REMARK   56  A    between atoms: _132  and  _133
REMARK   57  A    between atoms: _135  and  _137
REMARK   58  A    between atoms: _137  and  _138
REMARK   59  A    between atoms: _137  and  _140
REMARK   60  A    between atoms: _140  and  _141
REMARK   61  A    between atoms: _141  and  _142
REMARK   62  A    between atoms: _142  and  _143
REMARK   63  A    between atoms: _143  and  _144
REMARK   64  A    between atoms: _148  and  _150
REMARK   65  A    between atoms: _150  and  _151
REMARK   66  A    between atoms: _150  and  _153
REMARK   67  A    between atoms: _153  and  _154
REMARK   68  A    between atoms: _157  and  _159
REMARK   69  A    between atoms: _159  and  _160
REMARK   70  A    between atoms: _159  and  _162
REMARK   71  A    between atoms: _162  and  _163
REMARK   72  A    between atoms: _166  and  _168
REMARK   73  A    between atoms: _168  and  _169
REMARK   74  A    between atoms: _168  and  _171
REMARK   75  A    between atoms: _171  and  _172
REMARK   76  A    between atoms: _175  and  _177
REMARK   77  A    between atoms: _177  and  _178
REMARK   78  A    between atoms: _177  and  _180
REMARK   79  A    between atoms: _180  and  _181
REMARK   80  A    between atoms: _181  and  _182
REMARK   81  A    between atoms: _182  and  _183
REMARK   82  A    between atoms: _183  and  _184
REMARK   83  A    between atoms: _188  and  _190
REMARK   84  A    between atoms: _190  and  _191
REMARK   85  A    between atoms: _190  and  _193
REMARK   86  A    between atoms: _196  and  _198
REMARK   87  A    between atoms: _198  and  _199
REMARK   88  A    between atoms: _198  and  _201
REMARK   89  A    between atoms: _201  and  _202
REMARK   90  A    between atoms: _205  and  _207
REMARK   91  A    between atoms: _207  and  _208
REMARK   92  A    between atoms: _207  and  _210
REMARK   93  A    between atoms: _210  and  _211
REMARK   94  A    between atoms: _211  and  _212
REMARK   95  A    between atoms: _217  and  _219
REMARK   96  A    between atoms: _219  and  _220
REMARK   97  A    between atoms: _219  and  _222
REMARK   98  A    between atoms: _222  and  _223
REMARK   99  A    between atoms: _228  and  _230
REMARK  100  A    between atoms: _230  and  _231
REMARK  101  A    between atoms: _230  and  _233
REMARK  102  A    between atoms: _233  and  _234
REMARK  103  A    between atoms: _237  and  _239
REMARK  104  A    between atoms: _239  and  _240
REMARK  105  A    between atoms: _239  and  _242
REMARK  106  A    between atoms: _242  and  _243
REMARK  107  A    between atoms: _243  and  _244
REMARK  108  A    between atoms: _247  and  _249
REMARK  109  A    between atoms: _249  and  _250
REMARK  110  A    between atoms: _249  and  _252
REMARK  111  A    between atoms: _255  and  _257
REMARK  112  A    between atoms: _257  and  _258
REMARK  113  A    between atoms: _257  and  _260
REMARK  114  A    between atoms: _260  and  _261
REMARK  115  A    between atoms: _261  and  _262
REMARK  116  A    between atoms: _262  and  _263
REMARK  117  A    between atoms: _263  and  _264
REMARK  118  A    between atoms: _268  and  _270
REMARK  119  A    between atoms: _270  and  _271
REMARK  120  A    between atoms: _270  and  _273
REMARK  121  A    between atoms: _273  and  _274
REMARK  122  A    between atoms: _277  and  _279
REMARK  123  A    between atoms: _279  and  _280
REMARK  124  A    between atoms: _279  and  _282
REMARK  125  A    between atoms: _282  and  _283
REMARK  126  A    between atoms: _283  and  _284
REMARK  127  A    between atoms: _286  and  _288
REMARK  128  A    between atoms: _288  and  _289
REMARK  129  A    between atoms: _288  and  _291
REMARK  130  A    between atoms: _294  and  _296
REMARK  131  A    between atoms: _296  and  _297
REMARK  132  A    between atoms: _296  and  _299
REMARK  133  A    between atoms: _299  and  _300
REMARK  134  A    between atoms: _300  and  _301
REMARK  135  A    between atoms: _303  and  _305
REMARK  136  A    between atoms: _305  and  _306
REMARK  137  A    between atoms: _305  and  _308
REMARK  138  A    between atoms: _308  and  _309
REMARK  139  A    between atoms: _309  and  _310
REMARK  140  A    between atoms: _313  and  _315
REMARK  141  A    between atoms: _315  and  _316
REMARK  142  A    between atoms: _315  and  _318
REMARK  143  A    between atoms: _318  and  _319
REMARK  144  A    between atoms: _324  and  _325
REMARK  145  A    between atoms: _327  and  _329
REMARK  146  A    between atoms: _329  and  _330
REMARK  147  A    between atoms: _329  and  _332
REMARK  148  A    between atoms: _336  and  _337
REMARK  149  A    between atoms: _342  and  _344
REMARK  150  A    between atoms: _344  and  _345
REMARK  151  A    between atoms: _347  and  _349
REMARK  152  A    between atoms: _349  and  _350
REMARK  153  A    between atoms: _352  and  _354
REMARK  154  A    between atoms: _354  and  _355
REMARK  155  A    between atoms: _354  and  _357
REMARK  156  A    between atoms: _357  and  _358
REMARK  157  A    between atoms: _358  and  _359
REMARK  158  A    between atoms: _362  and  _364
REMARK  159  A    between atoms: _364  and  _365
REMARK  160  A    between atoms: _364  and  _367
REMARK  161  A    between atoms: _367  and  _368
REMARK  162  A    between atoms: _368  and  _369
REMARK  163  A    between atoms: _371  and  _373
REMARK  164  A    between atoms: _373  and  _374
REMARK  165  A    between atoms: _373  and  _376
REMARK  166  A    between atoms: _376  and  _377
REMARK  167  A    between atoms: _383  and  _385
REMARK  168  A    between atoms: _385  and  _386
REMARK  169  A    between atoms: _385  and  _388
REMARK  170  A    between atoms: _388  and  _389
REMARK  171  A    between atoms: _391  and  _393
REMARK  172  A    between atoms: _393  and  _394
REMARK  173  A    between atoms: _393  and  _396
REMARK  174  A    between atoms: _396  and  _397
REMARK  175  A    between atoms: _400  and  _402
REMARK  176  A    between atoms: _402  and  _403
REMARK  177  A    between atoms: _402  and  _405
REMARK  178  A    between atoms: _405  and  _406
REMARK  179  A    between atoms: _406  and  _407
REMARK  180  A    between atoms: _407  and  _408
REMARK  181  A    between atoms: _417  and  _419
REMARK  182  A    between atoms: _419  and  _420
REMARK  183  A    between atoms: _419  and  _422
REMARK  184  A    between atoms: _422  and  _423
REMARK  185  A    between atoms: _428  and  _429
REMARK  186  A    between atoms: _431  and  _433
REMARK  187  A    between atoms: _433  and  _434
REMARK  188  A    between atoms: _433  and  _436
REMARK  189  A    between atoms: _436  and  _437
REMARK  190  A    between atoms: _437  and  _438
REMARK  191  A    between atoms: _438  and  _439
REMARK  192  A    between atoms: _448  and  _450
REMARK  193  A    between atoms: _450  and  _451
REMARK  194  A    between atoms: _450  and  _453
REMARK  195  A    between atoms: _453  and  _454
REMARK  196  A    between atoms: _457  and  _459
REMARK  197  A    between atoms: _459  and  _460
REMARK  198  A    between atoms: _459  and  _462
REMARK  199  A    between atoms: _462  and  _463
REMARK  200  A    between atoms: _466  and  _468
REMARK  201  A    between atoms: _468  and  _469
REMARK  202  A    between atoms: _468  and  _471
REMARK  203  A    between atoms: _471  and  _472
REMARK  204  A    between atoms: _472  and  _473
REMARK  205  A    between atoms: _473  and  _474
REMARK  206  A    between atoms: _474  and  _475
REMARK  207  A    between atoms: _480  and  _481
REMARK  208  A    between atoms: _486  and  _488
REMARK  209  A    between atoms: _488  and  _489
REMARK  210  A    between atoms: _488  and  _491
REMARK  211  A    between atoms: _491  and  _492
REMARK  212  A    between atoms: _492  and  _493
REMARK  213  A    between atoms: _496  and  _498
REMARK  214  A    between atoms: _498  and  _499
REMARK  215  A    between atoms: _498  and  _501
REMARK  216  A    between atoms: _501  and  _502
REMARK  217  A    between atoms: _507  and  _509
REMARK  218  A    between atoms: _509  and  _510
REMARK  219  A    between atoms: _509  and  _512
REMARK  220  A    between atoms: _512  and  _513
REMARK  221  A    between atoms: _516  and  _518
REMARK  222  A    between atoms: _518  and  _519
REMARK  223  A    between atoms: _518  and  _521
REMARK  224  A    between atoms: _521  and  _522
REMARK  225  A    between atoms: _525  and  _527
REMARK  226  A    between atoms: _527  and  _528
REMARK  227  A    between atoms: _527  and  _530
REMARK  228  A    between atoms: _530  and  _531
REMARK  229  A    between atoms: _534  and  _536
REMARK  230  A    between atoms: _536  and  _537
REMARK  231  A    between atoms: _536  and  _539
REMARK  232  A    between atoms: _539  and  _540
REMARK  233  A    between atoms: _543  and  _545
REMARK  234  A    between atoms: _545  and  _546
REMARK  235  A    between atoms: _545  and  _548
REMARK  236  A    between atoms: _548  and  _549
REMARK  237  A    between atoms: _549  and  _550
REMARK  238  A    between atoms: _555  and  _557
REMARK  239  A    between atoms: _557  and  _558
REMARK  240  A    between atoms: _557  and  _560
REMARK  241  A    between atoms: _563  and  _565
REMARK  242  A    between atoms: _565  and  _566
REMARK  243  A    between atoms: _565  and  _568
REMARK  244  A    between atoms: _568  and  _569
REMARK  245  A    between atoms: _572  and  _574
REMARK  246  A    between atoms: _574  and  _575
REMARK  247  A    between atoms: _574  and  _577
REMARK  248  A    between atoms: _577  and  _578
REMARK  249  A    between atoms: _581  and  _583
REMARK  250  A    between atoms: _583  and  _584
REMARK  251  A    between atoms: _583  and  _586
REMARK  252  A    between atoms: _586  and  _587
REMARK  253  A    between atoms: _593  and  _595
REMARK  254  A    between atoms: _595  and  _596
REMARK  255  A    between atoms: _598  and  _600
REMARK  256  A    between atoms: _600  and  _601
REMARK  257  A    between atoms: _600  and  _603
REMARK  258  A    between atoms: _603  and  _604
REMARK  259  A    between atoms: _610  and  _612
REMARK  260  A    between atoms: _612  and  _613
REMARK  261  A    between atoms: _612  and  _615
REMARK  262  A    between atoms: _617  and  _619
REMARK  263  A    between atoms: _619  and  _620
REMARK  264  A    between atoms: _622  and  _624
REMARK  265  A    between atoms: _624  and  _625
REMARK  266  A    between atoms: _624  and  _627
REMARK  267  A    between atoms: _627  and  _628
REMARK  268  A    between atoms: _632  and  _633
REMARK  269  A    between atoms: _638  and  _640
REMARK  270  A    between atoms: _640  and  _641
REMARK  271  A    between atoms: _640  and  _643
REMARK  272  A    between atoms: _643  and  _644
REMARK  273  A    between atoms: _644  and  _645
REMARK  274  A    between atoms: _648  and  _650
REMARK  275  A    between atoms: _650  and  _651
REMARK  276  A    between atoms: _650  and  _653
REMARK  277  A    between atoms: _653  and  _654
REMARK  278  A    between atoms: _659  and  _660
REMARK  279  A    between atoms: _662  and  _664
REMARK  280  A    between atoms: _664  and  _665
REMARK  281  A    between atoms: _664  and  _667
REMARK  282  A    between atoms: _670  and  _672
REMARK  283  A    between atoms: _672  and  _673
REMARK  284  A    between atoms: _672  and  _675
REMARK  285  A    between atoms: _675  and  _676
REMARK  286  A    between atoms: _679  and  _681
REMARK  287  A    between atoms: _681  and  _682
REMARK  288  A    between atoms: _681  and  _684
REMARK  289  A    between atoms: _684  and  _685
REMARK  290  A    between atoms: _685  and  _686
REMARK  291  A    between atoms: _689  and  _691
REMARK  292  A    between atoms: _691  and  _692
REMARK  293  A    between atoms: _694  and  _696
REMARK  294  A    between atoms: _696  and  _697
REMARK  295  A    between atoms: _696  and  _699
REMARK  296  A    between atoms: _699  and  _700
REMARK  297  A    between atoms: _705  and  _706
REMARK  298  A    between atoms: _709  and  _710
REMARK  299  A    between atoms: _716  and  _717
REMARK  300  A    between atoms: _722  and  _724
REMARK  301  A    between atoms: _724  and  _725
REMARK  302  A    between atoms: _724  and  _727
REMARK  303  A    between atoms: _727  and  _728
REMARK  304  A    between atoms: _734  and  _736
REMARK  305  A    between atoms: _736  and  _737
REMARK  306  A    between atoms: _736  and  _739
REMARK  307  A    between atoms: _739  and  _740
REMARK  308  A    between atoms: _746  and  _748
REMARK  309  A    between atoms: _748  and  _749
REMARK  310  A    between atoms: _752  and  _754
REMARK  311  A    between atoms: _754  and  _755
REMARK  312  A    between atoms: _754  and  _757
REMARK  313  A    between atoms: _757  and  _758
REMARK                            x       y       z     vdW  Elec       q    Type
REMARK                         _______ _______ _______ _____ _____    ______ ____
ROOT
ATOM      1  CA  LYS A   1      19.153  -5.802   0.494  0.00  0.00    +0.145 C 
ENDROOT
BRANCH   1   2
ATOM      2  C   LYS A   1      20.201  -5.098   1.358  0.00  0.00    +0.238 C 
ATOM      3  N   VAL A   2      20.323  -5.501   2.621  0.00  0.00    -0.298 N 
ATOM      4  H   VAL A   2      19.647  -6.197   2.995  0.00  0.00    +0.150 HD
ATOM      5  O   LYS A   1      20.904  -4.227   0.862  0.00  0.00    -0.274 OA
BRANCH   3   6
ATOM      6  CA  VAL A   2      21.393  -4.988   3.512  0.00  0.00    +0.137 C 
BRANCH   6   7
ATOM      7  CB  VAL A   2      21.257  -5.585   4.942  0.00  0.00    +0.026 C 
ATOM      8  CG2 VAL A   2      22.480  -5.276   5.817  0.00  0.00    +0.002 C 
ATOM      9  CG1 VAL A   2      19.974  -5.078   5.603  0.00  0.00    +0.002 C 
ENDBRANCH   6   7
BRANCH   6  10
ATOM     10  C   VAL A   2      22.790  -5.268   2.928  0.00  0.00    +0.227 C 
ATOM     11  O   VAL A   2      23.645  -4.371   2.880  0.00  0.00    -0.286 OA
ENDBRANCH   6  10
ENDBRANCH   3   6
ENDBRANCH   1   2
BRANCH   1  12
ATOM     12  N   LYS A   1      19.101  -7.234   0.751  0.00  0.00    -0.238 NA
ATOM     13  H   LYS A   1      18.238  -7.640   1.167  0.00  0.00    +0.142 HD
ENDBRANCH   1  12
BRANCH   1  14
ATOM     14  CB  LYS A   1      17.781  -5.150   0.649  0.00  0.00    +0.026 C 
BRANCH  14  15
ATOM     15  CG  LYS A   1      16.764  -5.707  -0.345  0.00  0.00    -0.000 C 
BRANCH  15  16
ATOM     16  CD  LYS A   1      15.481  -4.898  -0.423  0.00  0.00    -0.024 C 
BRANCH  16  17
ATOM     17  CE  LYS A   1      14.575  -5.452  -1.568  0.00  0.00    -0.086 C 
BRANCH  17  18
ATOM     18  NZ  LYS A   1      13.181  -4.903  -1.491  0.00  0.00    +0.380 N 
ATOM     19  HZ1 LYS A   1      12.755  -5.168  -0.580  0.00  0.00    -0.089 HD
ATOM     20  HZ2 LYS A   1      13.213  -3.867  -1.572  0.00  0.00    -0.089 HD
ATOM     21  HZ3 LYS A   1      12.612  -5.295  -2.268  0.00  0.00    -0.089 HD
ENDBRANCH  17  18
ENDBRANCH  16  17
ENDBRANCH  15  16
ENDBRANCH  14  15
ENDBRANCH   1  14
TORSDOF 10
REMARK  Name = ../refined-set-2016/3ag9/3ag9_pocket.pdb
REMARK  313 active torsions:
REMARK  status: ('A' for Active; 'I' for Inactive)
REMARK    1  A    between atoms: _1  and  _3
REMARK    2  A    between atoms: _3  and  _4
REMARK    3  A    between atoms: _3  and  _6
REMARK    4  A    between atoms: _6  and  _7
REMARK    5  A    between atoms: _10  and  _12
REMARK    6  A    between atoms: _12  and  _13
REMARK    7  A    between atoms: _12  and  _15
REMARK    8  A    between atoms: _15  and  _16
REMARK    9  A    between atoms: _19  and  _21
REMARK   10  A    between atoms: _21  and  _22
REMARK   11  A    between atoms: _24  and  _26
REMARK   12  A    between atoms: _26  and  _27
REMARK   13  A    between atoms: _26  and  _29
REMARK   14  A    between atoms: _29  and  _30
REMARK   15  A    between atoms: _33  and  _35
REMARK   16  A    between atoms: _35  and  _36
REMARK   17  A    between atoms: _38  and  _40
REMARK   18  A    between atoms: _40  and  _41
REMARK   19  A    between atoms: _40  and  _43
REMARK   20  A    between atoms: _43  and  _44
REMARK   21  A    between atoms: _46  and  _48
REMARK   22  A    between atoms: _48  and  _49
REMARK   23  A    between atoms: _48  and  _51
REMARK   24  A    between atoms: _51  and  _52
REMARK   25  A    between atoms: _58  and  _60
REMARK   26  A    between atoms: _60  and  _61
REMARK   27  A    between atoms: _63  and  _65
REMARK   28  A    between atoms: _65  and  _66
REMARK   29  A    between atoms: _65  and  _68
REMARK   30  A    between atoms: _68  and  _69
REMARK   31  A    between atoms: _69  and  _70
REMARK   32  A    between atoms: _70  and  _71
REMARK   33  A    between atoms: _80  and  _82
REMARK   34  A    between atoms: _82  and  _83
REMARK   35  A    between atoms: _82  and  _85
REMARK   36  A    between atoms: _88  and  _90
REMARK   37  A    between atoms: _90  and  _91
REMARK   38  A    between atoms: _90  and  _93
REMARK   39  A    between atoms: _93  and  _94
REMARK   40  A    between atoms: _94  and  _95
REMARK   41  A    between atoms: _97  and  _99
REMARK   42  A    between atoms: _99  and  _100
REMARK   43  A    between atoms: _99  and  _102
REMARK   44  A    between atoms: _102  and  _103
REMARK   45  A    between atoms: _106  and  _108
REMARK   46  A    between atoms: _108  and  _109
REMARK   47  A    between atoms: _108  and  _111
REMARK   48  A    between atoms: _111  and  _112
REMARK   49  A    between atoms: _117  and  _118
REMARK   50  A    between atoms: _120  and  _122
REMARK   51  A    between atoms: _122  and  _123
REMARK   52  A    between atoms: _126  and  _128
REMARK   53  A    between atoms: _128  and  _129
REMARK   54  A    between atoms: _128  and  _131
REMARK   55  A    between atoms: _131  and  _132
REMARK   56  A    between atoms: _132  and  _133
REMARK   57  A    between atoms: _135  and  _137
REMARK   58  A    between atoms: _137  and  _138
REMARK   59  A    between atoms: _137  and  _140
REMARK   60  A    between atoms: _140  and  _141
REMARK   61  A    between atoms: _141  and  _142
REMARK   62  A    between atoms: _142  and  _143
REMARK   63  A    between atoms: _143  and  _144
REMARK   64  A    between atoms: _148  and  _150
REMARK   65  A    between atoms: _150  and  _151
REMARK   66  A    between atoms: _150  and  _153
REMARK   67  A    between atoms: _153  and  _154
REMARK   68  A    between atoms: _157  and  _159
REMARK   69  A    between atoms: _159  and  _160
REMARK   70  A    between atoms: _159  and  _162
REMARK   71  A    between atoms: _162  and  _163
REMARK   72  A    between atoms: _166  and  _168
REMARK   73  A    between atoms: _168  and  _169
REMARK   74  A    between atoms: _168  and  _171
REMARK   75  A    between atoms: _171  and  _172
REMARK   76  A    between atoms: _175  and  _177
REMARK   77  A    between atoms: _177  and  _178
REMARK   78  A    between atoms: _177  and  _180
REMARK   79  A    between atoms: _180  and  _181
REMARK   80  A    between atoms: _181  and  _182
REMARK   81  A    between atoms: _182  and  _183
REMARK   82  A    between atoms: _183  and  _184
REMARK   83  A    between atoms: _188  and  _190
REMARK   84  A    between atoms: _190  and  _191
REMARK   85  A    between atoms: _190  and  _193
REMARK   86  A    between atoms: _196  and  _198
REMARK   87  A    between atoms: _198  and  _199
REMARK   88  A    between atoms: _198  and  _201
REMARK   89  A    between atoms: _201  and  _202
REMARK   90  A    between atoms: _205  and  _207
REMARK   91  A    between atoms: _207  and  _208
REMARK   92  A    between atoms: _207  and  _210
REMARK   93  A    between atoms: _210  and  _211
REMARK   94  A    between atoms: _211  and  _212
REMARK   95  A    between atoms: _217  and  _219
REMARK   96  A    between atoms: _219  and  _220
REMARK   97  A    between atoms: _219  and  _222
REMARK   98  A    between atoms: _222  and  _223
REMARK   99  A    between atoms: _228  and  _230
REMARK  100  A    between atoms: _230  and  _231
REMARK  101  A    between atoms: _230  and  _233
REMARK  102  A    between atoms: _233  and  _234
REMARK  103  A    between atoms: _237  and  _239
REMARK  104  A    between atoms: _239  and  _240
REMARK  105  A    between atoms: _239  and  _242
REMARK  106  A    between atoms: _242  and  _243
REMARK  107  A    between atoms: _243  and  _244
REMARK  108  A    between atoms: _247  and  _249
REMARK  109  A    between atoms: _249  and  _250
REMARK  110  A    between atoms: _249  and  _252
REMARK  111  A    between atoms: _255  and  _257
REMARK  112  A    between atoms: _257  and  _258
REMARK  113  A    between atoms: _257  and  _260
REMARK  114  A    between atoms: _260  and  _261
REMARK  115  A    between atoms: _261  and  _262
REMARK  116  A    between atoms: _262  and  _263
REMARK  117  A    between atoms: _263  and  _264
REMARK  118  A    between atoms: _268  and  _270
REMARK  119  A    between atoms: _270  and  _271
REMARK  120  A    between atoms: _270  and  _273
REMARK  121  A    between atoms: _273  and  _274
REMARK  122  A    between atoms: _277  and  _279
REMARK  123  A    between atoms: _279  and  _280
REMARK  124  A    between atoms: _279  and  _282
REMARK  125  A    between atoms: _282  and  _283
REMARK  126  A    between atoms: _283  and  _284
REMARK  127  A    between atoms: _286  and  _288
REMARK  128  A    between atoms: _288  and  _289
REMARK  129  A    between atoms: _288  and  _291
REMARK  130  A    between atoms: _294  and  _296
REMARK  131  A    between atoms: _296  and  _297
REMARK  132  A    between atoms: _296  and  _299
REMARK  133  A    between atoms: _299  and  _300
REMARK  134  A    between atoms: _300  and  _301
REMARK  135  A    between atoms: _303  and  _305
REMARK  136  A    between atoms: _305  and  _306
REMARK  137  A    between atoms: _305  and  _308
REMARK  138  A    between atoms: _308  and  _309
REMARK  139  A    between atoms: _309  and  _310
REMARK  140  A    between atoms: _313  and  _315
REMARK  141  A    between atoms: _315  and  _316
REMARK  142  A    between atoms: _315  and  _318
REMARK  143  A    between atoms: _318  and  _319
REMARK  144  A    between atoms: _324  and  _325
REMARK  145  A    between atoms: _327  and  _329
REMARK  146  A    between atoms: _329  and  _330
REMARK  147  A    between atoms: _329  and  _332
REMARK  148  A    between atoms: _336  and  _337
REMARK  149  A    between atoms: _342  and  _344
REMARK  150  A    between atoms: _344  and  _345
REMARK  151  A    between atoms: _347  and  _349
REMARK  152  A    between atoms: _349  and  _350
REMARK  153  A    between atoms: _352  and  _354
REMARK  154  A    between atoms: _354  and  _355
REMARK  155  A    between atoms: _354  and  _357
REMARK  156  A    between atoms: _357  and  _358
REMARK  157  A    between atoms: _358  and  _359
REMARK  158  A    between atoms: _362  and  _364
REMARK  159  A    between atoms: _364  and  _365
REMARK  160  A    between atoms: _364  and  _367
REMARK  161  A    between atoms: _367  and  _368
REMARK  162  A    between atoms: _368  and  _369
REMARK  163  A    between atoms: _371  and  _373
REMARK  164  A    between atoms: _373  and  _374
REMARK  165  A    between atoms: _373  and  _376
REMARK  166  A    between atoms: _376  and  _377
REMARK  167  A    between atoms: _383  and  _385
REMARK  168  A    between atoms: _385  and  _386
REMARK  169  A    between atoms: _385  and  _388
REMARK  170  A    between atoms: _388  and  _389
REMARK  171  A    between atoms: _391  and  _393
REMARK  172  A    between atoms: _393  and  _394
REMARK  173  A    between atoms: _393  and  _396
REMARK  174  A    between atoms: _396  and  _397
REMARK  175  A    between atoms: _400  and  _402
REMARK  176  A    between atoms: _402  and  _403
REMARK  177  A    between atoms: _402  and  _405
REMARK  178  A    between atoms: _405  and  _406
REMARK  179  A    between atoms: _406  and  _407
REMARK  180  A    between atoms: _407  and  _408
REMARK  181  A    between atoms: _417  and  _419
REMARK  182  A    between atoms: _419  and  _420
REMARK  183  A    between atoms: _419  and  _422
REMARK  184  A    between atoms: _422  and  _423
REMARK  185  A    between atoms: _428  and  _429
REMARK  186  A    between atoms: _431  and  _433
REMARK  187  A    between atoms: _433  and  _434
REMARK  188  A    between atoms: _433  and  _436
REMARK  189  A    between atoms: _436  and  _437
REMARK  190  A    between atoms: _437  and  _438
REMARK  191  A    between atoms: _438  and  _439
REMARK  192  A    between atoms: _448  and  _450
REMARK  193  A    between atoms: _450  and  _451
REMARK  194  A    between atoms: _450  and  _453
REMARK  195  A    between atoms: _453  and  _454
REMARK  196  A    between atoms: _457  and  _459
REMARK  197  A    between atoms: _459  and  _460
REMARK  198  A    between atoms: _459  and  _462
REMARK  199  A    between atoms: _462  and  _463
REMARK  200  A    between atoms: _466  and  _468
REMARK  201  A    between atoms: _468  and  _469
REMARK  202  A    between atoms: _468  and  _471
REMARK  203  A    between atoms: _471  and  _472
REMARK  204  A    between atoms: _472  and  _473
REMARK  205  A    between atoms: _473  and  _474
REMARK  206  A    between atoms: _474  and  _475
REMARK  207  A    between atoms: _480  and  _481
REMARK  208  A    between atoms: _486  and  _488
REMARK  209  A    between atoms: _488  and  _489
REMARK  210  A    between atoms: _488  and  _491
REMARK  211  A    between atoms: _491  and  _492
REMARK  212  A    between atoms: _492  and  _493
REMARK  213  A    between atoms: _496  and  _498
REMARK  214  A    between atoms: _498  and  _499
REMARK  215  A    between atoms: _498  and  _501
REMARK  216  A    between atoms: _501  and  _502
REMARK  217  A    between atoms: _507  and  _509
REMARK  218  A    between atoms: _509  and  _510
REMARK  219  A    between atoms: _509  and  _512
REMARK  220  A    between atoms: _512  and  _513
REMARK  221  A    between atoms: _516  and  _518
REMARK  222  A    between atoms: _518  and  _519
REMARK  223  A    between atoms: _518  and  _521
REMARK  224  A    between atoms: _521  and  _522
REMARK  225  A    between atoms: _525  and  _527
REMARK  226  A    between atoms: _527  and  _528
REMARK  227  A    between atoms: _527  and  _530
REMARK  228  A    between atoms: _530  and  _531
REMARK  229  A    between atoms: _534  and  _536
REMARK  230  A    between atoms: _536  and  _537
REMARK  231  A    between atoms: _536  and  _539
REMARK  232  A    between atoms: _539  and  _540
REMARK  233  A    between atoms: _543  and  _545
REMARK  234  A    between atoms: _545  and  _546
REMARK  235  A    between atoms: _545  and  _548
REMARK  236  A    between atoms: _548  and  _549
REMARK  237  A    between atoms: _549  and  _550
REMARK  238  A    between atoms: _555  and  _557
REMARK  239  A    between atoms: _557  and  _558
REMARK  240  A    between atoms: _557  and  _560
REMARK  241  A    between atoms: _563  and  _565
REMARK  242  A    between atoms: _565  and  _566
REMARK  243  A    between atoms: _565  and  _568
REMARK  244  A    between atoms: _568  and  _569
REMARK  245  A    between atoms: _572  and  _574
REMARK  246  A    between atoms: _574  and  _575
REMARK  247  A    between atoms: _574  and  _577
REMARK  248  A    between atoms: _577  and  _578
REMARK  249  A    between atoms: _581  and  _583
REMARK  250  A    between atoms: _583  and  _584
REMARK  251  A    between atoms: _583  and  _586
REMARK  252  A    between atoms: _586  and  _587
REMARK  253  A    between atoms: _593  and  _595
REMARK  254  A    between atoms: _595  and  _596
REMARK  255  A    between atoms: _598  and  _600
REMARK  256  A    between atoms: _600  and  _601
REMARK  257  A    between atoms: _600  and  _603
REMARK  258  A    between atoms: _603  and  _604
REMARK  259  A    between atoms: _610  and  _612
REMARK  260  A    between atoms: _612  and  _613
REMARK  261  A    between atoms: _612  and  _615
REMARK  262  A    between atoms: _617  and  _619
REMARK  263  A    between atoms: _619  and  _620
REMARK  264  A    between atoms: _622  and  _624
REMARK  265  A    between atoms: _624  and  _625
REMARK  266  A    between atoms: _624  and  _627
REMARK  267  A    between atoms: _627  and  _628
REMARK  268  A    between atoms: _632  and  _633
REMARK  269  A    between atoms: _638  and  _640
REMARK  270  A    between atoms: _640  and  _641
REMARK  271  A    between atoms: _640  and  _643
REMARK  272  A    between atoms: _643  and  _644
REMARK  273  A    between atoms: _644  and  _645
REMARK  274  A    between atoms: _648  and  _650
REMARK  275  A    between atoms: _650  and  _651
REMARK  276  A    between atoms: _650  and  _653
REMARK  277  A    between atoms: _653  and  _654
REMARK  278  A    between atoms: _659  and  _660
REMARK  279  A    between atoms: _662  and  _664
REMARK  280  A    between atoms: _664  and  _665
REMARK  281  A    between atoms: _664  and  _667
REMARK  282  A    between atoms: _670  and  _672
REMARK  283  A    between atoms: _672  and  _673
REMARK  284  A    between atoms: _672  and  _675
REMARK  285  A    between atoms: _675  and  _676
REMARK  286  A    between atoms: _679  and  _681
REMARK  287  A    between atoms: _681  and  _682
REMARK  288  A    between atoms: _681  and  _684
REMARK  289  A    between atoms: _684  and  _685
REMARK  290  A    between atoms: _685  and  _686
REMARK  291  A    between atoms: _689  and  _691
REMARK  292  A    between atoms: _691  and  _692
REMARK  293  A    between atoms: _694  and  _696
REMARK  294  A    between atoms: _696  and  _697
REMARK  295  A    between atoms: _696  and  _699
REMARK  296  A    between atoms: _699  and  _700
REMARK  297  A    between atoms: _705  and  _706
REMARK  298  A    between atoms: _709  and  _710
REMARK  299  A    between atoms: _716  and  _717
REMARK  300  A    between atoms: _722  and  _724
REMARK  301  A    between atoms: _724  and  _725
REMARK  302  A    between atoms: _724  and  _727
REMARK  303  A    between atoms: _727  and  _728
REMARK  304  A    between atoms: _734  and  _736
REMARK  305  A    between atoms: _736  and  _737
REMARK  306  A    between atoms: _736  and  _739
REMARK  307  A    between atoms: _739  and  _740
REMARK  308  A    between atoms: _746  and  _748
REMARK  309  A    between atoms: _748  and  _749
REMARK  310  A    between atoms: _752  and  _754
REMARK  311  A    between atoms: _754  and  _755
REMARK  312  A    between atoms: _754  and  _757
REMARK  313  A    between atoms: _757  and  _758
REMARK                            x       y       z     vdW  Elec       q    Type
REMARK                         _______ _______ _______ _____ _____    ______ ____
ROOT
ATOM      1  CA  LEU A   1      23.775  -1.814  -0.096  0.00  0.00    +0.133 C 
ENDROOT
BRANCH   1   2
ATOM      2  N   LEU A   1      23.527  -3.232  -0.328  0.00  0.00    -0.239 NA
ATOM      3  H   LEU A   1      22.885  -3.756   0.300  0.00  0.00    +0.142 HD
ENDBRANCH   1   2
BRANCH   1   4
ATOM      4  C   LEU A   1      24.927  -1.567   0.879  0.00  0.00    +0.224 C 
ATOM      5  O   LEU A   1      25.155  -0.427   1.313  0.00  0.00    -0.287 OA
ENDBRANCH   1   4
BRANCH   1   6
ATOM      6  CB  LEU A   1      22.490  -1.121   0.350  0.00  0.00    +0.025 C 
BRANCH   6   7
ATOM      7  CG  LEU A   1      21.427  -0.953  -0.736  0.00  0.00    +0.002 C 
ATOM      8  CD2 LEU A   1      20.038  -0.722  -0.096  0.00  0.00    +0.000 C 
ATOM      9  CD1 LEU A   1      21.795   0.195  -1.717  0.00  0.00    +0.000 C 
ENDBRANCH   6   7
ENDBRANCH   1   6
TORSDOF 4
REMARK  Name = ../refined-set-2016/3ag9/3ag9_pocket.pdb
REMARK  313 active torsions:
REMARK  status: ('A' for Active; 'I' for Inactive)
REMARK    1  A    between atoms: _1  and  _3
REMARK    2  A    between atoms: _3  and  _4
REMARK    3  A    between atoms: _3  and  _6
REMARK    4  A    between atoms: _6  and  _7
REMARK    5  A    between atoms: _10  and  _12
REMARK    6  A    between atoms: _12  and  _13
REMARK    7  A    between atoms: _12  and  _15
REMARK    8  A    between atoms: _15  and  _16
REMARK    9  A    between atoms: _19  and  _21
REMARK   10  A    between atoms: _21  and  _22
REMARK   11  A    between atoms: _24  and  _26
REMARK   12  A    between atoms: _26  and  _27
REMARK   13  A    between atoms: _26  and  _29
REMARK   14  A    between atoms: _29  and  _30
REMARK   15  A    between atoms: _33  and  _35
REMARK   16  A    between atoms: _35  and  _36
REMARK   17  A    between atoms: _38  and  _40
REMARK   18  A    between atoms: _40  and  _41
REMARK   19  A    between atoms: _40  and  _43
REMARK   20  A    between atoms: _43  and  _44
REMARK   21  A    between atoms: _46  and  _48
REMARK   22  A    between atoms: _48  and  _49
REMARK   23  A    between atoms: _48  and  _51
REMARK   24  A    between atoms: _51  and  _52
REMARK   25  A    between atoms: _58  and  _60
REMARK   26  A    between atoms: _60  and  _61
REMARK   27  A    between atoms: _63  and  _65
REMARK   28  A    between atoms: _65  and  _66
REMARK   29  A    between atoms: _65  and  _68
REMARK   30  A    between atoms: _68  and  _69
REMARK   31  A    between atoms: _69  and  _70
REMARK   32  A    between atoms: _70  and  _71
REMARK   33  A    between atoms: _80  and  _82
REMARK   34  A    between atoms: _82  and  _83
REMARK   35  A    between atoms: _82  and  _85
REMARK   36  A    between atoms: _88  and  _90
REMARK   37  A    between atoms: _90  and  _91
REMARK   38  A    between atoms: _90  and  _93
REMARK   39  A    between atoms: _93  and  _94
REMARK   40  A    between atoms: _94  and  _95
REMARK   41  A    between atoms: _97  and  _99
REMARK   42  A    between atoms: _99  and  _100
REMARK   43  A    between atoms: _99  and  _102
REMARK   44  A    between atoms: _102  and  _103
REMARK   45  A    between atoms: _106  and  _108
REMARK   46  A    between atoms: _108  and  _109
REMARK   47  A    between atoms: _108  and  _111
REMARK   48  A    between atoms: _111  and  _112
REMARK   49  A    between atoms: _117  and  _118
REMARK   50  A    between atoms: _120  and  _122
REMARK   51  A    between atoms: _122  and  _123
REMARK   52  A    between atoms: _126  and  _128
REMARK   53  A    between atoms: _128  and  _129
REMARK   54  A    between atoms: _128  and  _131
REMARK   55  A    between atoms: _131  and  _132
REMARK   56  A    between atoms: _132  and  _133
REMARK   57  A    between atoms: _135  and  _137
REMARK   58  A    between atoms: _137  and  _138
REMARK   59  A    between atoms: _137  and  _140
REMARK   60  A    between atoms: _140  and  _141
REMARK   61  A    between atoms: _141  and  _142
REMARK   62  A    between atoms: _142  and  _143
REMARK   63  A    between atoms: _143  and  _144
REMARK   64  A    between atoms: _148  and  _150
REMARK   65  A    between atoms: _150  and  _151
REMARK   66  A    between atoms: _150  and  _153
REMARK   67  A    between atoms: _153  and  _154
REMARK   68  A    between atoms: _157  and  _159
REMARK   69  A    between atoms: _159  and  _160
REMARK   70  A    between atoms: _159  and  _162
REMARK   71  A    between atoms: _162  and  _163
REMARK   72  A    between atoms: _166  and  _168
REMARK   73  A    between atoms: _168  and  _169
REMARK   74  A    between atoms: _168  and  _171
REMARK   75  A    between atoms: _171  and  _172
REMARK   76  A    between atoms: _175  and  _177
REMARK   77  A    between atoms: _177  and  _178
REMARK   78  A    between atoms: _177  and  _180
REMARK   79  A    between atoms: _180  and  _181
REMARK   80  A    between atoms: _181  and  _182
REMARK   81  A    between atoms: _182  and  _183
REMARK   82  A    between atoms: _183  and  _184
REMARK   83  A    between atoms: _188  and  _190
REMARK   84  A    between atoms: _190  and  _191
REMARK   85  A    between atoms: _190  and  _193
REMARK   86  A    between atoms: _196  and  _198
REMARK   87  A    between atoms: _198  and  _199
REMARK   88  A    between atoms: _198  and  _201
REMARK   89  A    between atoms: _201  and  _202
REMARK   90  A    between atoms: _205  and  _207
REMARK   91  A    between atoms: _207  and  _208
REMARK   92  A    between atoms: _207  and  _210
REMARK   93  A    between atoms: _210  and  _211
REMARK   94  A    between atoms: _211  and  _212
REMARK   95  A    between atoms: _217  and  _219
REMARK   96  A    between atoms: _219  and  _220
REMARK   97  A    between atoms: _219  and  _222
REMARK   98  A    between atoms: _222  and  _223
REMARK   99  A    between atoms: _228  and  _230
REMARK  100  A    between atoms: _230  and  _231
REMARK  101  A    between atoms: _230  and  _233
REMARK  102  A    between atoms: _233  and  _234
REMARK  103  A    between atoms: _237  and  _239
REMARK  104  A    between atoms: _239  and  _240
REMARK  105  A    between atoms: _239  and  _242
REMARK  106  A    between atoms: _242  and  _243
REMARK  107  A    between atoms: _243  and  _244
REMARK  108  A    between atoms: _247  and  _249
REMARK  109  A    between atoms: _249  and  _250
REMARK  110  A    between atoms: _249  and  _252
REMARK  111  A    between atoms: _255  and  _257
REMARK  112  A    between atoms: _257  and  _258
REMARK  113  A    between atoms: _257  and  _260
REMARK  114  A    between atoms: _260  and  _261
REMARK  115  A    between atoms: _261  and  _262
REMARK  116  A    between atoms: _262  and  _263
REMARK  117  A    between atoms: _263  and  _264
REMARK  118  A    between atoms: _268  and  _270
REMARK  119  A    between atoms: _270  and  _271
REMARK  120  A    between atoms: _270  and  _273
REMARK  121  A    between atoms: _273  and  _274
REMARK  122  A    between atoms: _277  and  _279
REMARK  123  A    between atoms: _279  and  _280
REMARK  124  A    between atoms: _279  and  _282
REMARK  125  A    between atoms: _282  and  _283
REMARK  126  A    between atoms: _283  and  _284
REMARK  127  A    between atoms: _286  and  _288
REMARK  128  A    between atoms: _288  and  _289
REMARK  129  A    between atoms: _288  and  _291
REMARK  130  A    between atoms: _294  and  _296
REMARK  131  A    between atoms: _296  and  _297
REMARK  132  A    between atoms: _296  and  _299
REMARK  133  A    between atoms: _299  and  _300
REMARK  134  A    between atoms: _300  and  _301
REMARK  135  A    between atoms: _303  and  _305
REMARK  136  A    between atoms: _305  and  _306
REMARK  137  A    between atoms: _305  and  _308
REMARK  138  A    between atoms: _308  and  _309
REMARK  139  A    between atoms: _309  and  _310
REMARK  140  A    between atoms: _313  and  _315
REMARK  141  A    between atoms: _315  and  _316
REMARK  142  A    between atoms: _315  and  _318
REMARK  143  A    between atoms: _318  and  _319
REMARK  144  A    between atoms: _324  and  _325
REMARK  145  A    between atoms: _327  and  _329
REMARK  146  A    between atoms: _329  and  _330
REMARK  147  A    between atoms: _329  and  _332
REMARK  148  A    between atoms: _336  and  _337
REMARK  149  A    between atoms: _342  and  _344
REMARK  150  A    between atoms: _344  and  _345
REMARK  151  A    between atoms: _347  and  _349
REMARK  152  A    between atoms: _349  and  _350
REMARK  153  A    between atoms: _352  and  _354
REMARK  154  A    between atoms: _354  and  _355
REMARK  155  A    between atoms: _354  and  _357
REMARK  156  A    between atoms: _357  and  _358
REMARK  157  A    between atoms: _358  and  _359
REMARK  158  A    between atoms: _362  and  _364
REMARK  159  A    between atoms: _364  and  _365
REMARK  160  A    between atoms: _364  and  _367
REMARK  161  A    between atoms: _367  and  _368
REMARK  162  A    between atoms: _368  and  _369
REMARK  163  A    between atoms: _371  and  _373
REMARK  164  A    between atoms: _373  and  _374
REMARK  165  A    between atoms: _373  and  _376
REMARK  166  A    between atoms: _376  and  _377
REMARK  167  A    between atoms: _383  and  _385
REMARK  168  A    between atoms: _385  and  _386
REMARK  169  A    between atoms: _385  and  _388
REMARK  170  A    between atoms: _388  and  _389
REMARK  171  A    between atoms: _391  and  _393
REMARK  172  A    between atoms: _393  and  _394
REMARK  173  A    between atoms: _393  and  _396
REMARK  174  A    between atoms: _396  and  _397
REMARK  175  A    between atoms: _400  and  _402
REMARK  176  A    between atoms: _402  and  _403
REMARK  177  A    between atoms: _402  and  _405
REMARK  178  A    between atoms: _405  and  _406
REMARK  179  A    between atoms: _406  and  _407
REMARK  180  A    between atoms: _407  and  _408
REMARK  181  A    between atoms: _417  and  _419
REMARK  182  A    between atoms: _419  and  _420
REMARK  183  A    between atoms: _419  and  _422
REMARK  184  A    between atoms: _422  and  _423
REMARK  185  A    between atoms: _428  and  _429
REMARK  186  A    between atoms: _431  and  _433
REMARK  187  A    between atoms: _433  and  _434
REMARK  188  A    between atoms: _433  and  _436
REMARK  189  A    between atoms: _436  and  _437
REMARK  190  A    between atoms: _437  and  _438
REMARK  191  A    between atoms: _438  and  _439
REMARK  192  A    between atoms: _448  and  _450
REMARK  193  A    between atoms: _450  and  _451
REMARK  194  A    between atoms: _450  and  _453
REMARK  195  A    between atoms: _453  and  _454
REMARK  196  A    between atoms: _457  and  _459
REMARK  197  A    between atoms: _459  and  _460
REMARK  198  A    between atoms: _459  and  _462
REMARK  199  A    between atoms: _462  and  _463
REMARK  200  A    between atoms: _466  and  _468
REMARK  201  A    between atoms: _468  and  _469
REMARK  202  A    between atoms: _468  and  _471
REMARK  203  A    between atoms: _471  and  _472
REMARK  204  A    between atoms: _472  and  _473
REMARK  205  A    between atoms: _473  and  _474
REMARK  206  A    between atoms: _474  and  _475
REMARK  207  A    between atoms: _480  and  _481
REMARK  208  A    between atoms: _486  and  _488
REMARK  209  A    between atoms: _488  and  _489
REMARK  210  A    between atoms: _488  and  _491
REMARK  211  A    between atoms: _491  and  _492
REMARK  212  A    between atoms: _492  and  _493
REMARK  213  A    between atoms: _496  and  _498
REMARK  214  A    between atoms: _498  and  _499
REMARK  215  A    between atoms: _498  and  _501
REMARK  216  A    between atoms: _501  and  _502
REMARK  217  A    between atoms: _507  and  _509
REMARK  218  A    between atoms: _509  and  _510
REMARK  219  A    between atoms: _509  and  _512
REMARK  220  A    between atoms: _512  and  _513
REMARK  221  A    between atoms: _516  and  _518
REMARK  222  A    between atoms: _518  and  _519
REMARK  223  A    between atoms: _518  and  _521
REMARK  224  A    between atoms: _521  and  _522
REMARK  225  A    between atoms: _525  and  _527
REMARK  226  A    between atoms: _527  and  _528
REMARK  227  A    between atoms: _527  and  _530
REMARK  228  A    between atoms: _530  and  _531
REMARK  229  A    between atoms: _534  and  _536
REMARK  230  A    between atoms: _536  and  _537
REMARK  231  A    between atoms: _536  and  _539
REMARK  232  A    between atoms: _539  and  _540
REMARK  233  A    between atoms: _543  and  _545
REMARK  234  A    between atoms: _545  and  _546
REMARK  235  A    between atoms: _545  and  _548
REMARK  236  A    between atoms: _548  and  _549
REMARK  237  A    between atoms: _549  and  _550
REMARK  238  A    between atoms: _555  and  _557
REMARK  239  A    between atoms: _557  and  _558
REMARK  240  A    between atoms: _557  and  _560
REMARK  241  A    between atoms: _563  and  _565
REMARK  242  A    between atoms: _565  and  _566
REMARK  243  A    between atoms: _565  and  _568
REMARK  244  A    between atoms: _568  and  _569
REMARK  245  A    between atoms: _572  and  _574
REMARK  246  A    between atoms: _574  and  _575
REMARK  247  A    between atoms: _574  and  _577
REMARK  248  A    between atoms: _577  and  _578
REMARK  249  A    between atoms: _581  and  _583
REMARK  250  A    between atoms: _583  and  _584
REMARK  251  A    between atoms: _583  and  _586
REMARK  252  A    between atoms: _586  and  _587
REMARK  253  A    between atoms: _593  and  _595
REMARK  254  A    between atoms: _595  and  _596
REMARK  255  A    between atoms: _598  and  _600
REMARK  256  A    between atoms: _600  and  _601
REMARK  257  A    between atoms: _600  and  _603
REMARK  258  A    between atoms: _603  and  _604
REMARK  259  A    between atoms: _610  and  _612
REMARK  260  A    between atoms: _612  and  _613
REMARK  261  A    between atoms: _612  and  _615
REMARK  262  A    between atoms: _617  and  _619
REMARK  263  A    between atoms: _619  and  _620
REMARK  264  A    between atoms: _622  and  _624
REMARK  265  A    between atoms: _624  and  _625
REMARK  266  A    between atoms: _624  and  _627
REMARK  267  A    between atoms: _627  and  _628
REMARK  268  A    between atoms: _632  and  _633
REMARK  269  A    between atoms: _638  and  _640
REMARK  270  A    between atoms: _640  and  _641
REMARK  271  A    between atoms: _640  and  _643
REMARK  272  A    between atoms: _643  and  _644
REMARK  273  A    between atoms: _644  and  _645
REMARK  274  A    between atoms: _648  and  _650
REMARK  275  A    between atoms: _650  and  _651
REMARK  276  A    between atoms: _650  and  _653
REMARK  277  A    between atoms: _653  and  _654
REMARK  278  A    between atoms: _659  and  _660
REMARK  279  A    between atoms: _662  and  _664
REMARK  280  A    between atoms: _664  and  _665
REMARK  281  A    between atoms: _664  and  _667
REMARK  282  A    between atoms: _670  and  _672
REMARK  283  A    between atoms: _672  and  _673
REMARK  284  A    between atoms: _672  and  _675
REMARK  285  A    between atoms: _675  and  _676
REMARK  286  A    between atoms: _679  and  _681
REMARK  287  A    between atoms: _681  and  _682
REMARK  288  A    between atoms: _681  and  _684
REMARK  289  A    between atoms: _684  and  _685
REMARK  290  A    between atoms: _685  and  _686
REMARK  291  A    between atoms: _689  and  _691
REMARK  292  A    between atoms: _691  and  _692
REMARK  293  A    between atoms: _694  and  _696
REMARK  294  A    between atoms: _696  and  _697
REMARK  295  A    between atoms: _696  and  _699
REMARK  296  A    between atoms: _699  and  _700
REMARK  297  A    between atoms: _705  and  _706
REMARK  298  A    between atoms: _709  and  _710
REMARK  299  A    between atoms: _716  and  _717
REMARK  300  A    between atoms: _722  and  _724
REMARK  301  A    between atoms: _724  and  _725
REMARK  302  A    between atoms: _724  and  _727
REMARK  303  A    between atoms: _727  and  _728
REMARK  304  A    between atoms: _734  and  _736
REMARK  305  A    between atoms: _736  and  _737
REMARK  306  A    between atoms: _736  and  _739
REMARK  307  A    between atoms: _739  and  _740
REMARK  308  A    between atoms: _746  and  _748
REMARK  309  A    between atoms: _748  and  _749
REMARK  310  A    between atoms: _752  and  _754
REMARK  311  A    between atoms: _754  and  _755
REMARK  312  A    between atoms: _754  and  _757
REMARK  313  A    between atoms: _757  and  _758
REMARK                            x       y       z     vdW  Elec       q    Type
REMARK                         _______ _______ _______ _____ _____    ______ ____
ROOT
ATOM      1  CB  GLN A   1      23.529  -1.706   5.241  0.00  0.00    +0.035 C 
ENDROOT
BRANCH   1   2
ATOM      2  CA  GLN A   1      25.009  -2.119   5.344  0.00  0.00    +0.134 C 
BRANCH   2   3
ATOM      3  N   GLN A   1      25.480  -2.573   4.039  0.00  0.00    -0.239 NA
ATOM      4  H   GLN A   1      24.930  -3.296   3.533  0.00  0.00    +0.142 HD
ENDBRANCH   2   3
BRANCH   2   5
ATOM      5  C   GLN A   1      25.183  -3.129   6.471  0.00  0.00    +0.224 C 
ATOM      6  O   GLN A   1      24.566  -3.005   7.535  0.00  0.00    -0.287 OA
ENDBRANCH   2   5
ENDBRANCH   1   2
BRANCH   1   7
ATOM      7  CG  GLN A   1      23.313  -0.480   4.343  0.00  0.00    +0.087 C 
BRANCH   7   8
ATOM      8  CD  GLN A   1      24.171   0.685   4.782  0.00  0.00    +0.219 C 
ATOM      9  OE1 GLN A   1      23.981   1.234   5.866  0.00  0.00    -0.275 OA
ATOM     10  NE2 GLN A   1      25.132   1.059   3.951  0.00  0.00    -0.329 N 
ATOM     11 HE21 GLN A   1      25.762   1.846   4.206  0.00  0.00    +0.145 HD
ATOM     12 HE22 GLN A   1      25.256   0.566   3.044  0.00  0.00    +0.145 HD
ENDBRANCH   7   8
ENDBRANCH   1   7
TORSDOF 5
REMARK  Name = ../refined-set-2016/3ag9/3ag9_pocket.pdb
REMARK  313 active torsions:
REMARK  status: ('A' for Active; 'I' for Inactive)
REMARK    1  A    between atoms: _1  and  _3
REMARK    2  A    between atoms: _3  and  _4
REMARK    3  A    between atoms: _3  and  _6
REMARK    4  A    between atoms: _6  and  _7
REMARK    5  A    between atoms: _10  and  _12
REMARK    6  A    between atoms: _12  and  _13
REMARK    7  A    between atoms: _12  and  _15
REMARK    8  A    between atoms: _15  and  _16
REMARK    9  A    between atoms: _19  and  _21
REMARK   10  A    between atoms: _21  and  _22
REMARK   11  A    between atoms: _24  and  _26
REMARK   12  A    between atoms: _26  and  _27
REMARK   13  A    between atoms: _26  and  _29
REMARK   14  A    between atoms: _29  and  _30
REMARK   15  A    between atoms: _33  and  _35
REMARK   16  A    between atoms: _35  and  _36
REMARK   17  A    between atoms: _38  and  _40
REMARK   18  A    between atoms: _40  and  _41
REMARK   19  A    between atoms: _40  and  _43
REMARK   20  A    between atoms: _43  and  _44
REMARK   21  A    between atoms: _46  and  _48
REMARK   22  A    between atoms: _48  and  _49
REMARK   23  A    between atoms: _48  and  _51
REMARK   24  A    between atoms: _51  and  _52
REMARK   25  A    between atoms: _58  and  _60
REMARK   26  A    between atoms: _60  and  _61
REMARK   27  A    between atoms: _63  and  _65
REMARK   28  A    between atoms: _65  and  _66
REMARK   29  A    between atoms: _65  and  _68
REMARK   30  A    between atoms: _68  and  _69
REMARK   31  A    between atoms: _69  and  _70
REMARK   32  A    between atoms: _70  and  _71
REMARK   33  A    between atoms: _80  and  _82
REMARK   34  A    between atoms: _82  and  _83
REMARK   35  A    between atoms: _82  and  _85
REMARK   36  A    between atoms: _88  and  _90
REMARK   37  A    between atoms: _90  and  _91
REMARK   38  A    between atoms: _90  and  _93
REMARK   39  A    between atoms: _93  and  _94
REMARK   40  A    between atoms: _94  and  _95
REMARK   41  A    between atoms: _97  and  _99
REMARK   42  A    between atoms: _99  and  _100
REMARK   43  A    between atoms: _99  and  _102
REMARK   44  A    between atoms: _102  and  _103
REMARK   45  A    between atoms: _106  and  _108
REMARK   46  A    between atoms: _108  and  _109
REMARK   47  A    between atoms: _108  and  _111
REMARK   48  A    between atoms: _111  and  _112
REMARK   49  A    between atoms: _117  and  _118
REMARK   50  A    between atoms: _120  and  _122
REMARK   51  A    between atoms: _122  and  _123
REMARK   52  A    between atoms: _126  and  _128
REMARK   53  A    between atoms: _128  and  _129
REMARK   54  A    between atoms: _128  and  _131
REMARK   55  A    between atoms: _131  and  _132
REMARK   56  A    between atoms: _132  and  _133
REMARK   57  A    between atoms: _135  and  _137
REMARK   58  A    between atoms: _137  and  _138
REMARK   59  A    between atoms: _137  and  _140
REMARK   60  A    between atoms: _140  and  _141
REMARK   61  A    between atoms: _141  and  _142
REMARK   62  A    between atoms: _142  and  _143
REMARK   63  A    between atoms: _143  and  _144
REMARK   64  A    between atoms: _148  and  _150
REMARK   65  A    between atoms: _150  and  _151
REMARK   66  A    between atoms: _150  and  _153
REMARK   67  A    between atoms: _153  and  _154
REMARK   68  A    between atoms: _157  and  _159
REMARK   69  A    between atoms: _159  and  _160
REMARK   70  A    between atoms: _159  and  _162
REMARK   71  A    between atoms: _162  and  _163
REMARK   72  A    between atoms: _166  and  _168
REMARK   73  A    between atoms: _168  and  _169
REMARK   74  A    between atoms: _168  and  _171
REMARK   75  A    between atoms: _171  and  _172
REMARK   76  A    between atoms: _175  and  _177
REMARK   77  A    between atoms: _177  and  _178
REMARK   78  A    between atoms: _177  and  _180
REMARK   79  A    between atoms: _180  and  _181
REMARK   80  A    between atoms: _181  and  _182
REMARK   81  A    between atoms: _182  and  _183
REMARK   82  A    between atoms: _183  and  _184
REMARK   83  A    between atoms: _188  and  _190
REMARK   84  A    between atoms: _190  and  _191
REMARK   85  A    between atoms: _190  and  _193
REMARK   86  A    between atoms: _196  and  _198
REMARK   87  A    between atoms: _198  and  _199
REMARK   88  A    between atoms: _198  and  _201
REMARK   89  A    between atoms: _201  and  _202
REMARK   90  A    between atoms: _205  and  _207
REMARK   91  A    between atoms: _207  and  _208
REMARK   92  A    between atoms: _207  and  _210
REMARK   93  A    between atoms: _210  and  _211
REMARK   94  A    between atoms: _211  and  _212
REMARK   95  A    between atoms: _217  and  _219
REMARK   96  A    between atoms: _219  and  _220
REMARK   97  A    between atoms: _219  and  _222
REMARK   98  A    between atoms: _222  and  _223
REMARK   99  A    between atoms: _228  and  _230
REMARK  100  A    between atoms: _230  and  _231
REMARK  101  A    between atoms: _230  and  _233
REMARK  102  A    between atoms: _233  and  _234
REMARK  103  A    between atoms: _237  and  _239
REMARK  104  A    between atoms: _239  and  _240
REMARK  105  A    between atoms: _239  and  _242
REMARK  106  A    between atoms: _242  and  _243
REMARK  107  A    between atoms: _243  and  _244
REMARK  108  A    between atoms: _247  and  _249
REMARK  109  A    between atoms: _249  and  _250
REMARK  110  A    between atoms: _249  and  _252
REMARK  111  A    between atoms: _255  and  _257
REMARK  112  A    between atoms: _257  and  _258
REMARK  113  A    between atoms: _257  and  _260
REMARK  114  A    between atoms: _260  and  _261
REMARK  115  A    between atoms: _261  and  _262
REMARK  116  A    between atoms: _262  and  _263
REMARK  117  A    between atoms: _263  and  _264
REMARK  118  A    between atoms: _268  and  _270
REMARK  119  A    between atoms: _270  and  _271
REMARK  120  A    between atoms: _270  and  _273
REMARK  121  A    between atoms: _273  and  _274
REMARK  122  A    between atoms: _277  and  _279
REMARK  123  A    between atoms: _279  and  _280
REMARK  124  A    between atoms: _279  and  _282
REMARK  125  A    between atoms: _282  and  _283
REMARK  126  A    between atoms: _283  and  _284
REMARK  127  A    between atoms: _286  and  _288
REMARK  128  A    between atoms: _288  and  _289
REMARK  129  A    between atoms: _288  and  _291
REMARK  130  A    between atoms: _294  and  _296
REMARK  131  A    between atoms: _296  and  _297
REMARK  132  A    between atoms: _296  and  _299
REMARK  133  A    between atoms: _299  and  _300
REMARK  134  A    between atoms: _300  and  _301
REMARK  135  A    between atoms: _303  and  _305
REMARK  136  A    between atoms: _305  and  _306
REMARK  137  A    between atoms: _305  and  _308
REMARK  138  A    between atoms: _308  and  _309
REMARK  139  A    between atoms: _309  and  _310
REMARK  140  A    between atoms: _313  and  _315
REMARK  141  A    between atoms: _315  and  _316
REMARK  142  A    between atoms: _315  and  _318
REMARK  143  A    between atoms: _318  and  _319
REMARK  144  A    between atoms: _324  and  _325
REMARK  145  A    between atoms: _327  and  _329
REMARK  146  A    between atoms: _329  and  _330
REMARK  147  A    between atoms: _329  and  _332
REMARK  148  A    between atoms: _336  and  _337
REMARK  149  A    between atoms: _342  and  _344
REMARK  150  A    between atoms: _344  and  _345
REMARK  151  A    between atoms: _347  and  _349
REMARK  152  A    between atoms: _349  and  _350
REMARK  153  A    between atoms: _352  and  _354
REMARK  154  A    between atoms: _354  and  _355
REMARK  155  A    between atoms: _354  and  _357
REMARK  156  A    between atoms: _357  and  _358
REMARK  157  A    between atoms: _358  and  _359
REMARK  158  A    between atoms: _362  and  _364
REMARK  159  A    between atoms: _364  and  _365
REMARK  160  A    between atoms: _364  and  _367
REMARK  161  A    between atoms: _367  and  _368
REMARK  162  A    between atoms: _368  and  _369
REMARK  163  A    between atoms: _371  and  _373
REMARK  164  A    between atoms: _373  and  _374
REMARK  165  A    between atoms: _373  and  _376
REMARK  166  A    between atoms: _376  and  _377
REMARK  167  A    between atoms: _383  and  _385
REMARK  168  A    between atoms: _385  and  _386
REMARK  169  A    between atoms: _385  and  _388
REMARK  170  A    between atoms: _388  and  _389
REMARK  171  A    between atoms: _391  and  _393
REMARK  172  A    between atoms: _393  and  _394
REMARK  173  A    between atoms: _393  and  _396
REMARK  174  A    between atoms: _396  and  _397
REMARK  175  A    between atoms: _400  and  _402
REMARK  176  A    between atoms: _402  and  _403
REMARK  177  A    between atoms: _402  and  _405
REMARK  178  A    between atoms: _405  and  _406
REMARK  179  A    between atoms: _406  and  _407
REMARK  180  A    between atoms: _407  and  _408
REMARK  181  A    between atoms: _417  and  _419
REMARK  182  A    between atoms: _419  and  _420
REMARK  183  A    between atoms: _419  and  _422
REMARK  184  A    between atoms: _422  and  _423
REMARK  185  A    between atoms: _428  and  _429
REMARK  186  A    between atoms: _431  and  _433
REMARK  187  A    between atoms: _433  and  _434
REMARK  188  A    between atoms: _433  and  _436
REMARK  189  A    between atoms: _436  and  _437
REMARK  190  A    between atoms: _437  and  _438
REMARK  191  A    between atoms: _438  and  _439
REMARK  192  A    between atoms: _448  and  _450
REMARK  193  A    between atoms: _450  and  _451
REMARK  194  A    between atoms: _450  and  _453
REMARK  195  A    between atoms: _453  and  _454
REMARK  196  A    between atoms: _457  and  _459
REMARK  197  A    between atoms: _459  and  _460
REMARK  198  A    between atoms: _459  and  _462
REMARK  199  A    between atoms: _462  and  _463
REMARK  200  A    between atoms: _466  and  _468
REMARK  201  A    between atoms: _468  and  _469
REMARK  202  A    between atoms: _468  and  _471
REMARK  203  A    between atoms: _471  and  _472
REMARK  204  A    between atoms: _472  and  _473
REMARK  205  A    between atoms: _473  and  _474
REMARK  206  A    between atoms: _474  and  _475
REMARK  207  A    between atoms: _480  and  _481
REMARK  208  A    between atoms: _486  and  _488
REMARK  209  A    between atoms: _488  and  _489
REMARK  210  A    between atoms: _488  and  _491
REMARK  211  A    between atoms: _491  and  _492
REMARK  212  A    between atoms: _492  and  _493
REMARK  213  A    between atoms: _496  and  _498
REMARK  214  A    between atoms: _498  and  _499
REMARK  215  A    between atoms: _498  and  _501
REMARK  216  A    between atoms: _501  and  _502
REMARK  217  A    between atoms: _507  and  _509
REMARK  218  A    between atoms: _509  and  _510
REMARK  219  A    between atoms: _509  and  _512
REMARK  220  A    between atoms: _512  and  _513
REMARK  221  A    between atoms: _516  and  _518
REMARK  222  A    between atoms: _518  and  _519
REMARK  223  A    between atoms: _518  and  _521
REMARK  224  A    between atoms: _521  and  _522
REMARK  225  A    between atoms: _525  and  _527
REMARK  226  A    between atoms: _527  and  _528
REMARK  227  A    between atoms: _527  and  _530
REMARK  228  A    between atoms: _530  and  _531
REMARK  229  A    between atoms: _534  and  _536
REMARK  230  A    between atoms: _536  and  _537
REMARK  231  A    between atoms: _536  and  _539
REMARK  232  A    between atoms: _539  and  _540
REMARK  233  A    between atoms: _543  and  _545
REMARK  234  A    between atoms: _545  and  _546
REMARK  235  A    between atoms: _545  and  _548
REMARK  236  A    between atoms: _548  and  _549
REMARK  237  A    between atoms: _549  and  _550
REMARK  238  A    between atoms: _555  and  _557
REMARK  239  A    between atoms: _557  and  _558
REMARK  240  A    between atoms: _557  and  _560
REMARK  241  A    between atoms: _563  and  _565
REMARK  242  A    between atoms: _565  and  _566
REMARK  243  A    between atoms: _565  and  _568
REMARK  244  A    between atoms: _568  and  _569
REMARK  245  A    between atoms: _572  and  _574
REMARK  246  A    between atoms: _574  and  _575
REMARK  247  A    between atoms: _574  and  _577
REMARK  248  A    between atoms: _577  and  _578
REMARK  249  A    between atoms: _581  and  _583
REMARK  250  A    between atoms: _583  and  _584
REMARK  251  A    between atoms: _583  and  _586
REMARK  252  A    between atoms: _586  and  _587
REMARK  253  A    between atoms: _593  and  _595
REMARK  254  A    between atoms: _595  and  _596
REMARK  255  A    between atoms: _598  and  _600
REMARK  256  A    between atoms: _600  and  _601
REMARK  257  A    between atoms: _600  and  _603
REMARK  258  A    between atoms: _603  and  _604
REMARK  259  A    between atoms: _610  and  _612
REMARK  260  A    between atoms: _612  and  _613
REMARK  261  A    between atoms: _612  and  _615
REMARK  262  A    between atoms: _617  and  _619
REMARK  263  A    between atoms: _619  and  _620
REMARK  264  A    between atoms: _622  and  _624
REMARK  265  A    between atoms: _624  and  _625
REMARK  266  A    between atoms: _624  and  _627
REMARK  267  A    between atoms: _627  and  _628
REMARK  268  A    between atoms: _632  and  _633
REMARK  269  A    between atoms: _638  and  _640
REMARK  270  A    between atoms: _640  and  _641
REMARK  271  A    between atoms: _640  and  _643
REMARK  272  A    between atoms: _643  and  _644
REMARK  273  A    between atoms: _644  and  _645
REMARK  274  A    between atoms: _648  and  _650
REMARK  275  A    between atoms: _650  and  _651
REMARK  276  A    between atoms: _650  and  _653
REMARK  277  A    between atoms: _653  and  _654
REMARK  278  A    between atoms: _659  and  _660
REMARK  279  A    between atoms: _662  and  _664
REMARK  280  A    between atoms: _664  and  _665
REMARK  281  A    between atoms: _664  and  _667
REMARK  282  A    between atoms: _670  and  _672
REMARK  283  A    between atoms: _672  and  _673
REMARK  284  A    between atoms: _672  and  _675
REMARK  285  A    between atoms: _675  and  _676
REMARK  286  A    between atoms: _679  and  _681
REMARK  287  A    between atoms: _681  and  _682
REMARK  288  A    between atoms: _681  and  _684
REMARK  289  A    between atoms: _684  and  _685
REMARK  290  A    between atoms: _685  and  _686
REMARK  291  A    between atoms: _689  and  _691
REMARK  292  A    between atoms: _691  and  _692
REMARK  293  A    between atoms: _694  and  _696
REMARK  294  A    between atoms: _696  and  _697
REMARK  295  A    between atoms: _696  and  _699
REMARK  296  A    between atoms: _699  and  _700
REMARK  297  A    between atoms: _705  and  _706
REMARK  298  A    between atoms: _709  and  _710
REMARK  299  A    between atoms: _716  and  _717
REMARK  300  A    between atoms: _722  and  _724
REMARK  301  A    between atoms: _724  and  _725
REMARK  302  A    between atoms: _724  and  _727
REMARK  303  A    between atoms: _727  and  _728
REMARK  304  A    between atoms: _734  and  _736
REMARK  305  A    between atoms: _736  and  _737
REMARK  306  A    between atoms: _736  and  _739
REMARK  307  A    between atoms: _739  and  _740
REMARK  308  A    between atoms: _746  and  _748
REMARK  309  A    between atoms: _748  and  _749
REMARK  310  A    between atoms: _752  and  _754
REMARK  311  A    between atoms: _754  and  _755
REMARK  312  A    between atoms: _754  and  _757
REMARK  313  A    between atoms: _757  and  _758
REMARK                            x       y       z     vdW  Elec       q    Type
REMARK                         _______ _______ _______ _____ _____    ______ ____
ROOT
ATOM      1  C   HIS A   1      24.719  -1.516  11.089  0.00  0.00    +0.239 C 
ATOM      2  O   HIS A   1      24.379  -1.203  12.237  0.00  0.00    -0.274 OA
ATOM      3  N   THR A   2      24.133  -2.487  10.392  0.00  0.00    -0.296 N 
ATOM      4  H   THR A   2      24.440  -2.673   9.416  0.00  0.00    +0.150 HD
ENDROOT
BRANCH   1   5
ATOM      5  CA  HIS A   1      25.854  -0.778  10.377  0.00  0.00    +0.151 C 
BRANCH   5   6
ATOM      6  N   HIS A   1      26.789  -1.714   9.741  0.00  0.00    -0.238 NA
ATOM      7  H   HIS A   1      26.943  -1.673   8.713  0.00  0.00    +0.142 HD
ENDBRANCH   5   6
BRANCH   5   8
ATOM      8  CB  HIS A   1      25.264   0.212   9.360  0.00  0.00    +0.074 C 
BRANCH   8   9
ATOM      9  CG  HIS A   1      26.219   1.288   8.932  0.00  0.00    +0.082 A 
ATOM     10  CD2 HIS A   1      27.318   1.798   9.537  0.00  0.00    +0.115 A 
ATOM     11  NE2 HIS A   1      27.826   2.769   8.703  0.00  0.00    -0.221 NA
ATOM     12  CE1 HIS A   1      27.050   2.868   7.638  0.00  0.00    +0.199 A 
ATOM     13  ND1 HIS A   1      26.073   1.982   7.747  0.00  0.00    -0.227 NA
ENDBRANCH   8   9
ENDBRANCH   5   8
ENDBRANCH   1   5
BRANCH   3  14
ATOM     14  CA  THR A   2      23.073  -3.290  10.972  0.00  0.00    +0.164 C 
BRANCH  14  15
ATOM     15  C   THR A   2      23.534  -4.098  12.192  0.00  0.00    +0.229 C 
ATOM     16  O   THR A   2      22.820  -4.145  13.192  0.00  0.00    -0.286 OA
ENDBRANCH  14  15
BRANCH  14  17
ATOM     17  CB  THR A   2      22.429  -4.229   9.943  0.00  0.00    +0.136 C 
ATOM     18  CG2 THR A   2      21.300  -4.983  10.604  0.00  0.00    +0.034 C 
BRANCH  17  19
ATOM     19  OG1 THR A   2      21.881  -3.452   8.867  0.00  0.00    -0.382 OA
ATOM     20  HG1 THR A   2      22.605  -2.933   8.435  0.00  0.00    +0.210 HD
ENDBRANCH  17  19
ENDBRANCH  14  17
ENDBRANCH   3  14
TORSDOF 8
REMARK  Name = ../refined-set-2016/3ag9/3ag9_pocket.pdb
REMARK  313 active torsions:
REMARK  status: ('A' for Active; 'I' for Inactive)
REMARK    1  A    between atoms: _1  and  _3
REMARK    2  A    between atoms: _3  and  _4
REMARK    3  A    between atoms: _3  and  _6
REMARK    4  A    between atoms: _6  and  _7
REMARK    5  A    between atoms: _10  and  _12
REMARK    6  A    between atoms: _12  and  _13
REMARK    7  A    between atoms: _12  and  _15
REMARK    8  A    between atoms: _15  and  _16
REMARK    9  A    between atoms: _19  and  _21
REMARK   10  A    between atoms: _21  and  _22
REMARK   11  A    between atoms: _24  and  _26
REMARK   12  A    between atoms: _26  and  _27
REMARK   13  A    between atoms: _26  and  _29
REMARK   14  A    between atoms: _29  and  _30
REMARK   15  A    between atoms: _33  and  _35
REMARK   16  A    between atoms: _35  and  _36
REMARK   17  A    between atoms: _38  and  _40
REMARK   18  A    between atoms: _40  and  _41
REMARK   19  A    between atoms: _40  and  _43
REMARK   20  A    between atoms: _43  and  _44
REMARK   21  A    between atoms: _46  and  _48
REMARK   22  A    between atoms: _48  and  _49
REMARK   23  A    between atoms: _48  and  _51
REMARK   24  A    between atoms: _51  and  _52
REMARK   25  A    between atoms: _58  and  _60
REMARK   26  A    between atoms: _60  and  _61
REMARK   27  A    between atoms: _63  and  _65
REMARK   28  A    between atoms: _65  and  _66
REMARK   29  A    between atoms: _65  and  _68
REMARK   30  A    between atoms: _68  and  _69
REMARK   31  A    between atoms: _69  and  _70
REMARK   32  A    between atoms: _70  and  _71
REMARK   33  A    between atoms: _80  and  _82
REMARK   34  A    between atoms: _82  and  _83
REMARK   35  A    between atoms: _82  and  _85
REMARK   36  A    between atoms: _88  and  _90
REMARK   37  A    between atoms: _90  and  _91
REMARK   38  A    between atoms: _90  and  _93
REMARK   39  A    between atoms: _93  and  _94
REMARK   40  A    between atoms: _94  and  _95
REMARK   41  A    between atoms: _97  and  _99
REMARK   42  A    between atoms: _99  and  _100
REMARK   43  A    between atoms: _99  and  _102
REMARK   44  A    between atoms: _102  and  _103
REMARK   45  A    between atoms: _106  and  _108
REMARK   46  A    between atoms: _108  and  _109
REMARK   47  A    between atoms: _108  and  _111
REMARK   48  A    between atoms: _111  and  _112
REMARK   49  A    between atoms: _117  and  _118
REMARK   50  A    between atoms: _120  and  _122
REMARK   51  A    between atoms: _122  and  _123
REMARK   52  A    between atoms: _126  and  _128
REMARK   53  A    between atoms: _128  and  _129
REMARK   54  A    between atoms: _128  and  _131
REMARK   55  A    between atoms: _131  and  _132
REMARK   56  A    between atoms: _132  and  _133
REMARK   57  A    between atoms: _135  and  _137
REMARK   58  A    between atoms: _137  and  _138
REMARK   59  A    between atoms: _137  and  _140
REMARK   60  A    between atoms: _140  and  _141
REMARK   61  A    between atoms: _141  and  _142
REMARK   62  A    between atoms: _142  and  _143
REMARK   63  A    between atoms: _143  and  _144
REMARK   64  A    between atoms: _148  and  _150
REMARK   65  A    between atoms: _150  and  _151
REMARK   66  A    between atoms: _150  and  _153
REMARK   67  A    between atoms: _153  and  _154
REMARK   68  A    between atoms: _157  and  _159
REMARK   69  A    between atoms: _159  and  _160
REMARK   70  A    between atoms: _159  and  _162
REMARK   71  A    between atoms: _162  and  _163
REMARK   72  A    between atoms: _166  and  _168
REMARK   73  A    between atoms: _168  and  _169
REMARK   74  A    between atoms: _168  and  _171
REMARK   75  A    between atoms: _171  and  _172
REMARK   76  A    between atoms: _175  and  _177
REMARK   77  A    between atoms: _177  and  _178
REMARK   78  A    between atoms: _177  and  _180
REMARK   79  A    between atoms: _180  and  _181
REMARK   80  A    between atoms: _181  and  _182
REMARK   81  A    between atoms: _182  and  _183
REMARK   82  A    between atoms: _183  and  _184
REMARK   83  A    between atoms: _188  and  _190
REMARK   84  A    between atoms: _190  and  _191
REMARK   85  A    between atoms: _190  and  _193
REMARK   86  A    between atoms: _196  and  _198
REMARK   87  A    between atoms: _198  and  _199
REMARK   88  A    between atoms: _198  and  _201
REMARK   89  A    between atoms: _201  and  _202
REMARK   90  A    between atoms: _205  and  _207
REMARK   91  A    between atoms: _207  and  _208
REMARK   92  A    between atoms: _207  and  _210
REMARK   93  A    between atoms: _210  and  _211
REMARK   94  A    between atoms: _211  and  _212
REMARK   95  A    between atoms: _217  and  _219
REMARK   96  A    between atoms: _219  and  _220
REMARK   97  A    between atoms: _219  and  _222
REMARK   98  A    between atoms: _222  and  _223
REMARK   99  A    between atoms: _228  and  _230
REMARK  100  A    between atoms: _230  and  _231
REMARK  101  A    between atoms: _230  and  _233
REMARK  102  A    between atoms: _233  and  _234
REMARK  103  A    between atoms: _237  and  _239
REMARK  104  A    between atoms: _239  and  _240
REMARK  105  A    between atoms: _239  and  _242
REMARK  106  A    between atoms: _242  and  _243
REMARK  107  A    between atoms: _243  and  _244
REMARK  108  A    between atoms: _247  and  _249
REMARK  109  A    between atoms: _249  and  _250
REMARK  110  A    between atoms: _249  and  _252
REMARK  111  A    between atoms: _255  and  _257
REMARK  112  A    between atoms: _257  and  _258
REMARK  113  A    between atoms: _257  and  _260
REMARK  114  A    between atoms: _260  and  _261
REMARK  115  A    between atoms: _261  and  _262
REMARK  116  A    between atoms: _262  and  _263
REMARK  117  A    between atoms: _263  and  _264
REMARK  118  A    between atoms: _268  and  _270
REMARK  119  A    between atoms: _270  and  _271
REMARK  120  A    between atoms: _270  and  _273
REMARK  121  A    between atoms: _273  and  _274
REMARK  122  A    between atoms: _277  and  _279
REMARK  123  A    between atoms: _279  and  _280
REMARK  124  A    between atoms: _279  and  _282
REMARK  125  A    between atoms: _282  and  _283
REMARK  126  A    between atoms: _283  and  _284
REMARK  127  A    between atoms: _286  and  _288
REMARK  128  A    between atoms: _288  and  _289
REMARK  129  A    between atoms: _288  and  _291
REMARK  130  A    between atoms: _294  and  _296
REMARK  131  A    between atoms: _296  and  _297
REMARK  132  A    between atoms: _296  and  _299
REMARK  133  A    between atoms: _299  and  _300
REMARK  134  A    between atoms: _300  and  _301
REMARK  135  A    between atoms: _303  and  _305
REMARK  136  A    between atoms: _305  and  _306
REMARK  137  A    between atoms: _305  and  _308
REMARK  138  A    between atoms: _308  and  _309
REMARK  139  A    between atoms: _309  and  _310
REMARK  140  A    between atoms: _313  and  _315
REMARK  141  A    between atoms: _315  and  _316
REMARK  142  A    between atoms: _315  and  _318
REMARK  143  A    between atoms: _318  and  _319
REMARK  144  A    between atoms: _324  and  _325
REMARK  145  A    between atoms: _327  and  _329
REMARK  146  A    between atoms: _329  and  _330
REMARK  147  A    between atoms: _329  and  _332
REMARK  148  A    between atoms: _336  and  _337
REMARK  149  A    between atoms: _342  and  _344
REMARK  150  A    between atoms: _344  and  _345
REMARK  151  A    between atoms: _347  and  _349
REMARK  152  A    between atoms: _349  and  _350
REMARK  153  A    between atoms: _352  and  _354
REMARK  154  A    between atoms: _354  and  _355
REMARK  155  A    between atoms: _354  and  _357
REMARK  156  A    between atoms: _357  and  _358
REMARK  157  A    between atoms: _358  and  _359
REMARK  158  A    between atoms: _362  and  _364
REMARK  159  A    between atoms: _364  and  _365
REMARK  160  A    between atoms: _364  and  _367
REMARK  161  A    between atoms: _367  and  _368
REMARK  162  A    between atoms: _368  and  _369
REMARK  163  A    between atoms: _371  and  _373
REMARK  164  A    between atoms: _373  and  _374
REMARK  165  A    between atoms: _373  and  _376
REMARK  166  A    between atoms: _376  and  _377
REMARK  167  A    between atoms: _383  and  _385
REMARK  168  A    between atoms: _385  and  _386
REMARK  169  A    between atoms: _385  and  _388
REMARK  170  A    between atoms: _388  and  _389
REMARK  171  A    between atoms: _391  and  _393
REMARK  172  A    between atoms: _393  and  _394
REMARK  173  A    between atoms: _393  and  _396
REMARK  174  A    between atoms: _396  and  _397
REMARK  175  A    between atoms: _400  and  _402
REMARK  176  A    between atoms: _402  and  _403
REMARK  177  A    between atoms: _402  and  _405
REMARK  178  A    between atoms: _405  and  _406
REMARK  179  A    between atoms: _406  and  _407
REMARK  180  A    between atoms: _407  and  _408
REMARK  181  A    between atoms: _417  and  _419
REMARK  182  A    between atoms: _419  and  _420
REMARK  183  A    between atoms: _419  and  _422
REMARK  184  A    between atoms: _422  and  _423
REMARK  185  A    between atoms: _428  and  _429
REMARK  186  A    between atoms: _431  and  _433
REMARK  187  A    between atoms: _433  and  _434
REMARK  188  A    between atoms: _433  and  _436
REMARK  189  A    between atoms: _436  and  _437
REMARK  190  A    between atoms: _437  and  _438
REMARK  191  A    between atoms: _438  and  _439
REMARK  192  A    between atoms: _448  and  _450
REMARK  193  A    between atoms: _450  and  _451
REMARK  194  A    between atoms: _450  and  _453
REMARK  195  A    between atoms: _453  and  _454
REMARK  196  A    between atoms: _457  and  _459
REMARK  197  A    between atoms: _459  and  _460
REMARK  198  A    between atoms: _459  and  _462
REMARK  199  A    between atoms: _462  and  _463
REMARK  200  A    between atoms: _466  and  _468
REMARK  201  A    between atoms: _468  and  _469
REMARK  202  A    between atoms: _468  and  _471
REMARK  203  A    between atoms: _471  and  _472
REMARK  204  A    between atoms: _472  and  _473
REMARK  205  A    between atoms: _473  and  _474
REMARK  206  A    between atoms: _474  and  _475
REMARK  207  A    between atoms: _480  and  _481
REMARK  208  A    between atoms: _486  and  _488
REMARK  209  A    between atoms: _488  and  _489
REMARK  210  A    between atoms: _488  and  _491
REMARK  211  A    between atoms: _491  and  _492
REMARK  212  A    between atoms: _492  and  _493
REMARK  213  A    between atoms: _496  and  _498
REMARK  214  A    between atoms: _498  and  _499
REMARK  215  A    between atoms: _498  and  _501
REMARK  216  A    between atoms: _501  and  _502
REMARK  217  A    between atoms: _507  and  _509
REMARK  218  A    between atoms: _509  and  _510
REMARK  219  A    between atoms: _509  and  _512
REMARK  220  A    between atoms: _512  and  _513
REMARK  221  A    between atoms: _516  and  _518
REMARK  222  A    between atoms: _518  and  _519
REMARK  223  A    between atoms: _518  and  _521
REMARK  224  A    between atoms: _521  and  _522
REMARK  225  A    between atoms: _525  and  _527
REMARK  226  A    between atoms: _527  and  _528
REMARK  227  A    between atoms: _527  and  _530
REMARK  228  A    between atoms: _530  and  _531
REMARK  229  A    between atoms: _534  and  _536
REMARK  230  A    between atoms: _536  and  _537
REMARK  231  A    between atoms: _536  and  _539
REMARK  232  A    between atoms: _539  and  _540
REMARK  233  A    between atoms: _543  and  _545
REMARK  234  A    between atoms: _545  and  _546
REMARK  235  A    between atoms: _545  and  _548
REMARK  236  A    between atoms: _548  and  _549
REMARK  237  A    between atoms: _549  and  _550
REMARK  238  A    between atoms: _555  and  _557
REMARK  239  A    between atoms: _557  and  _558
REMARK  240  A    between atoms: _557  and  _560
REMARK  241  A    between atoms: _563  and  _565
REMARK  242  A    between atoms: _565  and  _566
REMARK  243  A    between atoms: _565  and  _568
REMARK  244  A    between atoms: _568  and  _569
REMARK  245  A    between atoms: _572  and  _574
REMARK  246  A    between atoms: _574  and  _575
REMARK  247  A    between atoms: _574  and  _577
REMARK  248  A    between atoms: _577  and  _578
REMARK  249  A    between atoms: _581  and  _583
REMARK  250  A    between atoms: _583  and  _584
REMARK  251  A    between atoms: _583  and  _586
REMARK  252  A    between atoms: _586  and  _587
REMARK  253  A    between atoms: _593  and  _595
REMARK  254  A    between atoms: _595  and  _596
REMARK  255  A    between atoms: _598  and  _600
REMARK  256  A    between atoms: _600  and  _601
REMARK  257  A    between atoms: _600  and  _603
REMARK  258  A    between atoms: _603  and  _604
REMARK  259  A    between atoms: _610  and  _612
REMARK  260  A    between atoms: _612  and  _613
REMARK  261  A    between atoms: _612  and  _615
REMARK  262  A    between atoms: _617  and  _619
REMARK  263  A    between atoms: _619  and  _620
REMARK  264  A    between atoms: _622  and  _624
REMARK  265  A    between atoms: _624  and  _625
REMARK  266  A    between atoms: _624  and  _627
REMARK  267  A    between atoms: _627  and  _628
REMARK  268  A    between atoms: _632  and  _633
REMARK  269  A    between atoms: _638  and  _640
REMARK  270  A    between atoms: _640  and  _641
REMARK  271  A    between atoms: _640  and  _643
REMARK  272  A    between atoms: _643  and  _644
REMARK  273  A    between atoms: _644  and  _645
REMARK  274  A    between atoms: _648  and  _650
REMARK  275  A    between atoms: _650  and  _651
REMARK  276  A    between atoms: _650  and  _653
REMARK  277  A    between atoms: _653  and  _654
REMARK  278  A    between atoms: _659  and  _660
REMARK  279  A    between atoms: _662  and  _664
REMARK  280  A    between atoms: _664  and  _665
REMARK  281  A    between atoms: _664  and  _667
REMARK  282  A    between atoms: _670  and  _672
REMARK  283  A    between atoms: _672  and  _673
REMARK  284  A    between atoms: _672  and  _675
REMARK  285  A    between atoms: _675  and  _676
REMARK  286  A    between atoms: _679  and  _681
REMARK  287  A    between atoms: _681  and  _682
REMARK  288  A    between atoms: _681  and  _684
REMARK  289  A    between atoms: _684  and  _685
REMARK  290  A    between atoms: _685  and  _686
REMARK  291  A    between atoms: _689  and  _691
REMARK  292  A    between atoms: _691  and  _692
REMARK  293  A    between atoms: _694  and  _696
REMARK  294  A    between atoms: _696  and  _697
REMARK  295  A    between atoms: _696  and  _699
REMARK  296  A    between atoms: _699  and  _700
REMARK  297  A    between atoms: _705  and  _706
REMARK  298  A    between atoms: _709  and  _710
REMARK  299  A    between atoms: _716  and  _717
REMARK  300  A    between atoms: _722  and  _724
REMARK  301  A    between atoms: _724  and  _725
REMARK  302  A    between atoms: _724  and  _727
REMARK  303  A    between atoms: _727  and  _728
REMARK  304  A    between atoms: _734  and  _736
REMARK  305  A    between atoms: _736  and  _737
REMARK  306  A    between atoms: _736  and  _739
REMARK  307  A    between atoms: _739  and  _740
REMARK  308  A    between atoms: _746  and  _748
REMARK  309  A    between atoms: _748  and  _749
REMARK  310  A    between atoms: _752  and  _754
REMARK  311  A    between atoms: _754  and  _755
REMARK  312  A    between atoms: _754  and  _757
REMARK  313  A    between atoms: _757  and  _758
REMARK                            x       y       z     vdW  Elec       q    Type
REMARK                         _______ _______ _______ _____ _____    ______ ____
ROOT
ATOM      1  CA  GLU A   1      22.941  -1.086  15.659  0.00  0.00    +0.134 C 
ENDROOT
BRANCH   1   2
ATOM      2  N   GLU A   1      24.181  -1.617  15.130  0.00  0.00    -0.239 NA
ATOM      3  H   GLU A   1      24.284  -1.728  14.101  0.00  0.00    +0.142 HD
ENDBRANCH   1   2
BRANCH   1   4
ATOM      4  C   GLU A   1      22.302  -2.069  16.624  0.00  0.00    +0.224 C 
ATOM      5  O   GLU A   1      21.863  -1.686  17.715  0.00  0.00    -0.287 OA
ENDBRANCH   1   4
BRANCH   1   6
ATOM      6  CB  GLU A   1      21.955  -0.729  14.535  0.00  0.00    +0.037 C 
BRANCH   6   7
ATOM      7  CG  GLU A   1      20.577  -0.322  15.066  0.00  0.00    +0.116 C 
BRANCH   7   8
ATOM      8  CD  GLU A   1      19.558   0.077  14.008  0.00  0.00    +0.365 C 
ATOM      9  OE2 GLU A   1      18.590   0.767  14.390  0.00  0.00    -0.246 OA
ATOM     10  OE1 GLU A   1      19.709  -0.277  12.814  0.00  0.00    -0.246 OA
ENDBRANCH   7   8
ENDBRANCH   6   7
ENDBRANCH   1   6
TORSDOF 5
REMARK  Name = ../refined-set-2016/3ag9/3ag9_pocket.pdb
REMARK  313 active torsions:
REMARK  status: ('A' for Active; 'I' for Inactive)
REMARK    1  A    between atoms: _1  and  _3
REMARK    2  A    between atoms: _3  and  _4
REMARK    3  A    between atoms: _3  and  _6
REMARK    4  A    between atoms: _6  and  _7
REMARK    5  A    between atoms: _10  and  _12
REMARK    6  A    between atoms: _12  and  _13
REMARK    7  A    between atoms: _12  and  _15
REMARK    8  A    between atoms: _15  and  _16
REMARK    9  A    between atoms: _19  and  _21
REMARK   10  A    between atoms: _21  and  _22
REMARK   11  A    between atoms: _24  and  _26
REMARK   12  A    between atoms: _26  and  _27
REMARK   13  A    between atoms: _26  and  _29
REMARK   14  A    between atoms: _29  and  _30
REMARK   15  A    between atoms: _33  and  _35
REMARK   16  A    between atoms: _35  and  _36
REMARK   17  A    between atoms: _38  and  _40
REMARK   18  A    between atoms: _40  and  _41
REMARK   19  A    between atoms: _40  and  _43
REMARK   20  A    between atoms: _43  and  _44
REMARK   21  A    between atoms: _46  and  _48
REMARK   22  A    between atoms: _48  and  _49
REMARK   23  A    between atoms: _48  and  _51
REMARK   24  A    between atoms: _51  and  _52
REMARK   25  A    between atoms: _58  and  _60
REMARK   26  A    between atoms: _60  and  _61
REMARK   27  A    between atoms: _63  and  _65
REMARK   28  A    between atoms: _65  and  _66
REMARK   29  A    between atoms: _65  and  _68
REMARK   30  A    between atoms: _68  and  _69
REMARK   31  A    between atoms: _69  and  _70
REMARK   32  A    between atoms: _70  and  _71
REMARK   33  A    between atoms: _80  and  _82
REMARK   34  A    between atoms: _82  and  _83
REMARK   35  A    between atoms: _82  and  _85
REMARK   36  A    between atoms: _88  and  _90
REMARK   37  A    between atoms: _90  and  _91
REMARK   38  A    between atoms: _90  and  _93
REMARK   39  A    between atoms: _93  and  _94
REMARK   40  A    between atoms: _94  and  _95
REMARK   41  A    between atoms: _97  and  _99
REMARK   42  A    between atoms: _99  and  _100
REMARK   43  A    between atoms: _99  and  _102
REMARK   44  A    between atoms: _102  and  _103
REMARK   45  A    between atoms: _106  and  _108
REMARK   46  A    between atoms: _108  and  _109
REMARK   47  A    between atoms: _108  and  _111
REMARK   48  A    between atoms: _111  and  _112
REMARK   49  A    between atoms: _117  and  _118
REMARK   50  A    between atoms: _120  and  _122
REMARK   51  A    between atoms: _122  and  _123
REMARK   52  A    between atoms: _126  and  _128
REMARK   53  A    between atoms: _128  and  _129
REMARK   54  A    between atoms: _128  and  _131
REMARK   55  A    between atoms: _131  and  _132
REMARK   56  A    between atoms: _132  and  _133
REMARK   57  A    between atoms: _135  and  _137
REMARK   58  A    between atoms: _137  and  _138
REMARK   59  A    between atoms: _137  and  _140
REMARK   60  A    between atoms: _140  and  _141
REMARK   61  A    between atoms: _141  and  _142
REMARK   62  A    between atoms: _142  and  _143
REMARK   63  A    between atoms: _143  and  _144
REMARK   64  A    between atoms: _148  and  _150
REMARK   65  A    between atoms: _150  and  _151
REMARK   66  A    between atoms: _150  and  _153
REMARK   67  A    between atoms: _153  and  _154
REMARK   68  A    between atoms: _157  and  _159
REMARK   69  A    between atoms: _159  and  _160
REMARK   70  A    between atoms: _159  and  _162
REMARK   71  A    between atoms: _162  and  _163
REMARK   72  A    between atoms: _166  and  _168
REMARK   73  A    between atoms: _168  and  _169
REMARK   74  A    between atoms: _168  and  _171
REMARK   75  A    between atoms: _171  and  _172
REMARK   76  A    between atoms: _175  and  _177
REMARK   77  A    between atoms: _177  and  _178
REMARK   78  A    between atoms: _177  and  _180
REMARK   79  A    between atoms: _180  and  _181
REMARK   80  A    between atoms: _181  and  _182
REMARK   81  A    between atoms: _182  and  _183
REMARK   82  A    between atoms: _183  and  _184
REMARK   83  A    between atoms: _188  and  _190
REMARK   84  A    between atoms: _190  and  _191
REMARK   85  A    between atoms: _190  and  _193
REMARK   86  A    between atoms: _196  and  _198
REMARK   87  A    between atoms: _198  and  _199
REMARK   88  A    between atoms: _198  and  _201
REMARK   89  A    between atoms: _201  and  _202
REMARK   90  A    between atoms: _205  and  _207
REMARK   91  A    between atoms: _207  and  _208
REMARK   92  A    between atoms: _207  and  _210
REMARK   93  A    between atoms: _210  and  _211
REMARK   94  A    between atoms: _211  and  _212
REMARK   95  A    between atoms: _217  and  _219
REMARK   96  A    between atoms: _219  and  _220
REMARK   97  A    between atoms: _219  and  _222
REMARK   98  A    between atoms: _222  and  _223
REMARK   99  A    between atoms: _228  and  _230
REMARK  100  A    between atoms: _230  and  _231
REMARK  101  A    between atoms: _230  and  _233
REMARK  102  A    between atoms: _233  and  _234
REMARK  103  A    between atoms: _237  and  _239
REMARK  104  A    between atoms: _239  and  _240
REMARK  105  A    between atoms: _239  and  _242
REMARK  106  A    between atoms: _242  and  _243
REMARK  107  A    between atoms: _243  and  _244
REMARK  108  A    between atoms: _247  and  _249
REMARK  109  A    between atoms: _249  and  _250
REMARK  110  A    between atoms: _249  and  _252
REMARK  111  A    between atoms: _255  and  _257
REMARK  112  A    between atoms: _257  and  _258
REMARK  113  A    between atoms: _257  and  _260
REMARK  114  A    between atoms: _260  and  _261
REMARK  115  A    between atoms: _261  and  _262
REMARK  116  A    between atoms: _262  and  _263
REMARK  117  A    between atoms: _263  and  _264
REMARK  118  A    between atoms: _268  and  _270
REMARK  119  A    between atoms: _270  and  _271
REMARK  120  A    between atoms: _270  and  _273
REMARK  121  A    between atoms: _273  and  _274
REMARK  122  A    between atoms: _277  and  _279
REMARK  123  A    between atoms: _279  and  _280
REMARK  124  A    between atoms: _279  and  _282
REMARK  125  A    between atoms: _282  and  _283
REMARK  126  A    between atoms: _283  and  _284
REMARK  127  A    between atoms: _286  and  _288
REMARK  128  A    between atoms: _288  and  _289
REMARK  129  A    between atoms: _288  and  _291
REMARK  130  A    between atoms: _294  and  _296
REMARK  131  A    between atoms: _296  and  _297
REMARK  132  A    between atoms: _296  and  _299
REMARK  133  A    between atoms: _299  and  _300
REMARK  134  A    between atoms: _300  and  _301
REMARK  135  A    between atoms: _303  and  _305
REMARK  136  A    between atoms: _305  and  _306
REMARK  137  A    between atoms: _305  and  _308
REMARK  138  A    between atoms: _308  and  _309
REMARK  139  A    between atoms: _309  and  _310
REMARK  140  A    between atoms: _313  and  _315
REMARK  141  A    between atoms: _315  and  _316
REMARK  142  A    between atoms: _315  and  _318
REMARK  143  A    between atoms: _318  and  _319
REMARK  144  A    between atoms: _324  and  _325
REMARK  145  A    between atoms: _327  and  _329
REMARK  146  A    between atoms: _329  and  _330
REMARK  147  A    between atoms: _329  and  _332
REMARK  148  A    between atoms: _336  and  _337
REMARK  149  A    between atoms: _342  and  _344
REMARK  150  A    between atoms: _344  and  _345
REMARK  151  A    between atoms: _347  and  _349
REMARK  152  A    between atoms: _349  and  _350
REMARK  153  A    between atoms: _352  and  _354
REMARK  154  A    between atoms: _354  and  _355
REMARK  155  A    between atoms: _354  and  _357
REMARK  156  A    between atoms: _357  and  _358
REMARK  157  A    between atoms: _358  and  _359
REMARK  158  A    between atoms: _362  and  _364
REMARK  159  A    between atoms: _364  and  _365
REMARK  160  A    between atoms: _364  and  _367
REMARK  161  A    between atoms: _367  and  _368
REMARK  162  A    between atoms: _368  and  _369
REMARK  163  A    between atoms: _371  and  _373
REMARK  164  A    between atoms: _373  and  _374
REMARK  165  A    between atoms: _373  and  _376
REMARK  166  A    between atoms: _376  and  _377
REMARK  167  A    between atoms: _383  and  _385
REMARK  168  A    between atoms: _385  and  _386
REMARK  169  A    between atoms: _385  and  _388
REMARK  170  A    between atoms: _388  and  _389
REMARK  171  A    between atoms: _391  and  _393
REMARK  172  A    between atoms: _393  and  _394
REMARK  173  A    between atoms: _393  and  _396
REMARK  174  A    between atoms: _396  and  _397
REMARK  175  A    between atoms: _400  and  _402
REMARK  176  A    between atoms: _402  and  _403
REMARK  177  A    between atoms: _402  and  _405
REMARK  178  A    between atoms: _405  and  _406
REMARK  179  A    between atoms: _406  and  _407
REMARK  180  A    between atoms: _407  and  _408
REMARK  181  A    between atoms: _417  and  _419
REMARK  182  A    between atoms: _419  and  _420
REMARK  183  A    between atoms: _419  and  _422
REMARK  184  A    between atoms: _422  and  _423
REMARK  185  A    between atoms: _428  and  _429
REMARK  186  A    between atoms: _431  and  _433
REMARK  187  A    between atoms: _433  and  _434
REMARK  188  A    between atoms: _433  and  _436
REMARK  189  A    between atoms: _436  and  _437
REMARK  190  A    between atoms: _437  and  _438
REMARK  191  A    between atoms: _438  and  _439
REMARK  192  A    between atoms: _448  and  _450
REMARK  193  A    between atoms: _450  and  _451
REMARK  194  A    between atoms: _450  and  _453
REMARK  195  A    between atoms: _453  and  _454
REMARK  196  A    between atoms: _457  and  _459
REMARK  197  A    between atoms: _459  and  _460
REMARK  198  A    between atoms: _459  and  _462
REMARK  199  A    between atoms: _462  and  _463
REMARK  200  A    between atoms: _466  and  _468
REMARK  201  A    between atoms: _468  and  _469
REMARK  202  A    between atoms: _468  and  _471
REMARK  203  A    between atoms: _471  and  _472
REMARK  204  A    between atoms: _472  and  _473
REMARK  205  A    between atoms: _473  and  _474
REMARK  206  A    between atoms: _474  and  _475
REMARK  207  A    between atoms: _480  and  _481
REMARK  208  A    between atoms: _486  and  _488
REMARK  209  A    between atoms: _488  and  _489
REMARK  210  A    between atoms: _488  and  _491
REMARK  211  A    between atoms: _491  and  _492
REMARK  212  A    between atoms: _492  and  _493
REMARK  213  A    between atoms: _496  and  _498
REMARK  214  A    between atoms: _498  and  _499
REMARK  215  A    between atoms: _498  and  _501
REMARK  216  A    between atoms: _501  and  _502
REMARK  217  A    between atoms: _507  and  _509
REMARK  218  A    between atoms: _509  and  _510
REMARK  219  A    between atoms: _509  and  _512
REMARK  220  A    between atoms: _512  and  _513
REMARK  221  A    between atoms: _516  and  _518
REMARK  222  A    between atoms: _518  and  _519
REMARK  223  A    between atoms: _518  and  _521
REMARK  224  A    between atoms: _521  and  _522
REMARK  225  A    between atoms: _525  and  _527
REMARK  226  A    between atoms: _527  and  _528
REMARK  227  A    between atoms: _527  and  _530
REMARK  228  A    between atoms: _530  and  _531
REMARK  229  A    between atoms: _534  and  _536
REMARK  230  A    between atoms: _536  and  _537
REMARK  231  A    between atoms: _536  and  _539
REMARK  232  A    between atoms: _539  and  _540
REMARK  233  A    between atoms: _543  and  _545
REMARK  234  A    between atoms: _545  and  _546
REMARK  235  A    between atoms: _545  and  _548
REMARK  236  A    between atoms: _548  and  _549
REMARK  237  A    between atoms: _549  and  _550
REMARK  238  A    between atoms: _555  and  _557
REMARK  239  A    between atoms: _557  and  _558
REMARK  240  A    between atoms: _557  and  _560
REMARK  241  A    between atoms: _563  and  _565
REMARK  242  A    between atoms: _565  and  _566
REMARK  243  A    between atoms: _565  and  _568
REMARK  244  A    between atoms: _568  and  _569
REMARK  245  A    between atoms: _572  and  _574
REMARK  246  A    between atoms: _574  and  _575
REMARK  247  A    between atoms: _574  and  _577
REMARK  248  A    between atoms: _577  and  _578
REMARK  249  A    between atoms: _581  and  _583
REMARK  250  A    between atoms: _583  and  _584
REMARK  251  A    between atoms: _583  and  _586
REMARK  252  A    between atoms: _586  and  _587
REMARK  253  A    between atoms: _593  and  _595
REMARK  254  A    between atoms: _595  and  _596
REMARK  255  A    between atoms: _598  and  _600
REMARK  256  A    between atoms: _600  and  _601
REMARK  257  A    between atoms: _600  and  _603
REMARK  258  A    between atoms: _603  and  _604
REMARK  259  A    between atoms: _610  and  _612
REMARK  260  A    between atoms: _612  and  _613
REMARK  261  A    between atoms: _612  and  _615
REMARK  262  A    between atoms: _617  and  _619
REMARK  263  A    between atoms: _619  and  _620
REMARK  264  A    between atoms: _622  and  _624
REMARK  265  A    between atoms: _624  and  _625
REMARK  266  A    between atoms: _624  and  _627
REMARK  267  A    between atoms: _627  and  _628
REMARK  268  A    between atoms: _632  and  _633
REMARK  269  A    between atoms: _638  and  _640
REMARK  270  A    between atoms: _640  and  _641
REMARK  271  A    between atoms: _640  and  _643
REMARK  272  A    between atoms: _643  and  _644
REMARK  273  A    between atoms: _644  and  _645
REMARK  274  A    between atoms: _648  and  _650
REMARK  275  A    between atoms: _650  and  _651
REMARK  276  A    between atoms: _650  and  _653
REMARK  277  A    between atoms: _653  and  _654
REMARK  278  A    between atoms: _659  and  _660
REMARK  279  A    between atoms: _662  and  _664
REMARK  280  A    between atoms: _664  and  _665
REMARK  281  A    between atoms: _664  and  _667
REMARK  282  A    between atoms: _670  and  _672
REMARK  283  A    between atoms: _672  and  _673
REMARK  284  A    between atoms: _672  and  _675
REMARK  285  A    between atoms: _675  and  _676
REMARK  286  A    between atoms: _679  and  _681
REMARK  287  A    between atoms: _681  and  _682
REMARK  288  A    between atoms: _681  and  _684
REMARK  289  A    between atoms: _684  and  _685
REMARK  290  A    between atoms: _685  and  _686
REMARK  291  A    between atoms: _689  and  _691
REMARK  292  A    between atoms: _691  and  _692
REMARK  293  A    between atoms: _694  and  _696
REMARK  294  A    between atoms: _696  and  _697
REMARK  295  A    between atoms: _696  and  _699
REMARK  296  A    between atoms: _699  and  _700
REMARK  297  A    between atoms: _705  and  _706
REMARK  298  A    between atoms: _709  and  _710
REMARK  299  A    between atoms: _716  and  _717
REMARK  300  A    between atoms: _722  and  _724
REMARK  301  A    between atoms: _724  and  _725
REMARK  302  A    between atoms: _724  and  _727
REMARK  303  A    between atoms: _727  and  _728
REMARK  304  A    between atoms: _734  and  _736
REMARK  305  A    between atoms: _736  and  _737
REMARK  306  A    between atoms: _736  and  _739
REMARK  307  A    between atoms: _739  and  _740
REMARK  308  A    between atoms: _746  and  _748
REMARK  309  A    between atoms: _748  and  _749
REMARK  310  A    between atoms: _752  and  _754
REMARK  311  A    between atoms: _754  and  _755
REMARK  312  A    between atoms: _754  and  _757
REMARK  313  A    between atoms: _757  and  _758
REMARK                            x       y       z     vdW  Elec       q    Type
REMARK                         _______ _______ _______ _____ _____    ______ ____
ROOT
ATOM      1  CA  LYS A   2      14.757   0.601  23.771  0.00  0.00    +0.149 C 
ENDROOT
BRANCH   1   3
ATOM      2  C   VAL A   1      14.794   2.627  22.488  0.00  0.00    +0.238 C 
ATOM      3  N   LYS A   2      14.150   1.864  23.362  0.00  0.00    -0.297 N 
ATOM      4  H   LYS A   2      13.231   2.160  23.748  0.00  0.00    +0.150 HD
ATOM      5  O   VAL A   1      15.861   2.296  22.012  0.00  0.00    -0.274 OA
BRANCH   2   6
ATOM      6  CA  VAL A   1      14.157   3.975  22.130  0.00  0.00    +0.145 C 
BRANCH   6   7
ATOM      7  CB  VAL A   1      13.577   3.942  20.710  0.00  0.00    +0.025 C 
ATOM      8  CG2 VAL A   1      12.521   2.845  20.630  0.00  0.00    +0.002 C 
ATOM      9  CG1 VAL A   1      12.979   5.295  20.347  0.00  0.00    +0.002 C 
ENDBRANCH   6   7
BRANCH   6  10
ATOM     10  N   VAL A   1      15.143   5.034  22.332  0.00  0.00    -0.238 NA
ATOM     11  H   VAL A   1      15.542   5.546  21.519  0.00  0.00    +0.142 HD
ENDBRANCH   6  10
ENDBRANCH   2   6
ENDBRANCH   1   3
BRANCH   1  12
ATOM     12  C   LYS A   2      14.360  -0.549  22.850  0.00  0.00    +0.241 C 
ATOM     13  O   LYS A   2      13.162  -0.740  22.585  0.00  0.00    -0.273 OA
ATOM     14  N   LEU A   3      15.373  -1.271  22.357  0.00  0.00    -0.298 N 
ATOM     15  H   LEU A   3      16.335  -0.880  22.417  0.00  0.00    +0.150 HD
BRANCH  14  16
ATOM     16  CA  LEU A   3      15.193  -2.588  21.736  0.00  0.00    +0.137 C 
BRANCH  16  17
ATOM     17  C   LEU A   3      14.675  -3.612  22.756  0.00  0.00    +0.227 C 
ATOM     18  O   LEU A   3      15.361  -3.931  23.733  0.00  0.00    -0.286 OA
ENDBRANCH  16  17
BRANCH  16  19
ATOM     19  CB  LEU A   3      16.498  -3.087  21.126  0.00  0.00    +0.028 C 
BRANCH  19  20
ATOM     20  CG  LEU A   3      16.336  -4.445  20.445  0.00  0.00    +0.002 C 
ATOM     21  CD2 LEU A   3      16.932  -5.609  21.222  0.00  0.00    +0.000 C 
ATOM     22  CD1 LEU A   3      16.828  -4.428  19.008  0.00  0.00    +0.000 C 
ENDBRANCH  19  20
ENDBRANCH  16  19
ENDBRANCH  14  16
ENDBRANCH   1  12
BRANCH   1  23
ATOM     23  CB  LYS A   2      14.395   0.266  25.207  0.00  0.00    +0.029 C 
BRANCH  23  24
ATOM     24  CG  LYS A   2      15.559  -0.356  25.987  0.00  0.00    +0.000 C 
BRANCH  24  25
ATOM     25  CD  LYS A   2      15.053  -1.411  26.939  0.00  0.00    -0.024 C 
BRANCH  25  26
ATOM     26  CE  LYS A   2      16.182  -2.369  27.268  0.00  0.00    -0.086 C 
BRANCH  26  27
ATOM     27  NZ  LYS A   2      16.592  -3.203  26.103  0.00  0.00    +0.380 N 
ATOM     28  HZ1 LYS A   2      17.366  -3.837  26.387  0.00  0.00    -0.089 HD
ATOM     29  HZ2 LYS A   2      15.781  -3.767  25.780  0.00  0.00    -0.089 HD
ATOM     30  HZ3 LYS A   2      16.915  -2.584  25.332  0.00  0.00    -0.089 HD
ENDBRANCH  26  27
ENDBRANCH  25  26
ENDBRANCH  24  25
ENDBRANCH  23  24
ENDBRANCH   1  23
TORSDOF 14
REMARK  Name = ../refined-set-2016/3ag9/3ag9_pocket.pdb
REMARK  313 active torsions:
REMARK  status: ('A' for Active; 'I' for Inactive)
REMARK    1  A    between atoms: _1  and  _3
REMARK    2  A    between atoms: _3  and  _4
REMARK    3  A    between atoms: _3  and  _6
REMARK    4  A    between atoms: _6  and  _7
REMARK    5  A    between atoms: _10  and  _12
REMARK    6  A    between atoms: _12  and  _13
REMARK    7  A    between atoms: _12  and  _15
REMARK    8  A    between atoms: _15  and  _16
REMARK    9  A    between atoms: _19  and  _21
REMARK   10  A    between atoms: _21  and  _22
REMARK   11  A    between atoms: _24  and  _26
REMARK   12  A    between atoms: _26  and  _27
REMARK   13  A    between atoms: _26  and  _29
REMARK   14  A    between atoms: _29  and  _30
REMARK   15  A    between atoms: _33  and  _35
REMARK   16  A    between atoms: _35  and  _36
REMARK   17  A    between atoms: _38  and  _40
REMARK   18  A    between atoms: _40  and  _41
REMARK   19  A    between atoms: _40  and  _43
REMARK   20  A    between atoms: _43  and  _44
REMARK   21  A    between atoms: _46  and  _48
REMARK   22  A    between atoms: _48  and  _49
REMARK   23  A    between atoms: _48  and  _51
REMARK   24  A    between atoms: _51  and  _52
REMARK   25  A    between atoms: _58  and  _60
REMARK   26  A    between atoms: _60  and  _61
REMARK   27  A    between atoms: _63  and  _65
REMARK   28  A    between atoms: _65  and  _66
REMARK   29  A    between atoms: _65  and  _68
REMARK   30  A    between atoms: _68  and  _69
REMARK   31  A    between atoms: _69  and  _70
REMARK   32  A    between atoms: _70  and  _71
REMARK   33  A    between atoms: _80  and  _82
REMARK   34  A    between atoms: _82  and  _83
REMARK   35  A    between atoms: _82  and  _85
REMARK   36  A    between atoms: _88  and  _90
REMARK   37  A    between atoms: _90  and  _91
REMARK   38  A    between atoms: _90  and  _93
REMARK   39  A    between atoms: _93  and  _94
REMARK   40  A    between atoms: _94  and  _95
REMARK   41  A    between atoms: _97  and  _99
REMARK   42  A    between atoms: _99  and  _100
REMARK   43  A    between atoms: _99  and  _102
REMARK   44  A    between atoms: _102  and  _103
REMARK   45  A    between atoms: _106  and  _108
REMARK   46  A    between atoms: _108  and  _109
REMARK   47  A    between atoms: _108  and  _111
REMARK   48  A    between atoms: _111  and  _112
REMARK   49  A    between atoms: _117  and  _118
REMARK   50  A    between atoms: _120  and  _122
REMARK   51  A    between atoms: _122  and  _123
REMARK   52  A    between atoms: _126  and  _128
REMARK   53  A    between atoms: _128  and  _129
REMARK   54  A    between atoms: _128  and  _131
REMARK   55  A    between atoms: _131  and  _132
REMARK   56  A    between atoms: _132  and  _133
REMARK   57  A    between atoms: _135  and  _137
REMARK   58  A    between atoms: _137  and  _138
REMARK   59  A    between atoms: _137  and  _140
REMARK   60  A    between atoms: _140  and  _141
REMARK   61  A    between atoms: _141  and  _142
REMARK   62  A    between atoms: _142  and  _143
REMARK   63  A    between atoms: _143  and  _144
REMARK   64  A    between atoms: _148  and  _150
REMARK   65  A    between atoms: _150  and  _151
REMARK   66  A    between atoms: _150  and  _153
REMARK   67  A    between atoms: _153  and  _154
REMARK   68  A    between atoms: _157  and  _159
REMARK   69  A    between atoms: _159  and  _160
REMARK   70  A    between atoms: _159  and  _162
REMARK   71  A    between atoms: _162  and  _163
REMARK   72  A    between atoms: _166  and  _168
REMARK   73  A    between atoms: _168  and  _169
REMARK   74  A    between atoms: _168  and  _171
REMARK   75  A    between atoms: _171  and  _172
REMARK   76  A    between atoms: _175  and  _177
REMARK   77  A    between atoms: _177  and  _178
REMARK   78  A    between atoms: _177  and  _180
REMARK   79  A    between atoms: _180  and  _181
REMARK   80  A    between atoms: _181  and  _182
REMARK   81  A    between atoms: _182  and  _183
REMARK   82  A    between atoms: _183  and  _184
REMARK   83  A    between atoms: _188  and  _190
REMARK   84  A    between atoms: _190  and  _191
REMARK   85  A    between atoms: _190  and  _193
REMARK   86  A    between atoms: _196  and  _198
REMARK   87  A    between atoms: _198  and  _199
REMARK   88  A    between atoms: _198  and  _201
REMARK   89  A    between atoms: _201  and  _202
REMARK   90  A    between atoms: _205  and  _207
REMARK   91  A    between atoms: _207  and  _208
REMARK   92  A    between atoms: _207  and  _210
REMARK   93  A    between atoms: _210  and  _211
REMARK   94  A    between atoms: _211  and  _212
REMARK   95  A    between atoms: _217  and  _219
REMARK   96  A    between atoms: _219  and  _220
REMARK   97  A    between atoms: _219  and  _222
REMARK   98  A    between atoms: _222  and  _223
REMARK   99  A    between atoms: _228  and  _230
REMARK  100  A    between atoms: _230  and  _231
REMARK  101  A    between atoms: _230  and  _233
REMARK  102  A    between atoms: _233  and  _234
REMARK  103  A    between atoms: _237  and  _239
REMARK  104  A    between atoms: _239  and  _240
REMARK  105  A    between atoms: _239  and  _242
REMARK  106  A    between atoms: _242  and  _243
REMARK  107  A    between atoms: _243  and  _244
REMARK  108  A    between atoms: _247  and  _249
REMARK  109  A    between atoms: _249  and  _250
REMARK  110  A    between atoms: _249  and  _252
REMARK  111  A    between atoms: _255  and  _257
REMARK  112  A    between atoms: _257  and  _258
REMARK  113  A    between atoms: _257  and  _260
REMARK  114  A    between atoms: _260  and  _261
REMARK  115  A    between atoms: _261  and  _262
REMARK  116  A    between atoms: _262  and  _263
REMARK  117  A    between atoms: _263  and  _264
REMARK  118  A    between atoms: _268  and  _270
REMARK  119  A    between atoms: _270  and  _271
REMARK  120  A    between atoms: _270  and  _273
REMARK  121  A    between atoms: _273  and  _274
REMARK  122  A    between atoms: _277  and  _279
REMARK  123  A    between atoms: _279  and  _280
REMARK  124  A    between atoms: _279  and  _282
REMARK  125  A    between atoms: _282  and  _283
REMARK  126  A    between atoms: _283  and  _284
REMARK  127  A    between atoms: _286  and  _288
REMARK  128  A    between atoms: _288  and  _289
REMARK  129  A    between atoms: _288  and  _291
REMARK  130  A    between atoms: _294  and  _296
REMARK  131  A    between atoms: _296  and  _297
REMARK  132  A    between atoms: _296  and  _299
REMARK  133  A    between atoms: _299  and  _300
REMARK  134  A    between atoms: _300  and  _301
REMARK  135  A    between atoms: _303  and  _305
REMARK  136  A    between atoms: _305  and  _306
REMARK  137  A    between atoms: _305  and  _308
REMARK  138  A    between atoms: _308  and  _309
REMARK  139  A    between atoms: _309  and  _310
REMARK  140  A    between atoms: _313  and  _315
REMARK  141  A    between atoms: _315  and  _316
REMARK  142  A    between atoms: _315  and  _318
REMARK  143  A    between atoms: _318  and  _319
REMARK  144  A    between atoms: _324  and  _325
REMARK  145  A    between atoms: _327  and  _329
REMARK  146  A    between atoms: _329  and  _330
REMARK  147  A    between atoms: _329  and  _332
REMARK  148  A    between atoms: _336  and  _337
REMARK  149  A    between atoms: _342  and  _344
REMARK  150  A    between atoms: _344  and  _345
REMARK  151  A    between atoms: _347  and  _349
REMARK  152  A    between atoms: _349  and  _350
REMARK  153  A    between atoms: _352  and  _354
REMARK  154  A    between atoms: _354  and  _355
REMARK  155  A    between atoms: _354  and  _357
REMARK  156  A    between atoms: _357  and  _358
REMARK  157  A    between atoms: _358  and  _359
REMARK  158  A    between atoms: _362  and  _364
REMARK  159  A    between atoms: _364  and  _365
REMARK  160  A    between atoms: _364  and  _367
REMARK  161  A    between atoms: _367  and  _368
REMARK  162  A    between atoms: _368  and  _369
REMARK  163  A    between atoms: _371  and  _373
REMARK  164  A    between atoms: _373  and  _374
REMARK  165  A    between atoms: _373  and  _376
REMARK  166  A    between atoms: _376  and  _377
REMARK  167  A    between atoms: _383  and  _385
REMARK  168  A    between atoms: _385  and  _386
REMARK  169  A    between atoms: _385  and  _388
REMARK  170  A    between atoms: _388  and  _389
REMARK  171  A    between atoms: _391  and  _393
REMARK  172  A    between atoms: _393  and  _394
REMARK  173  A    between atoms: _393  and  _396
REMARK  174  A    between atoms: _396  and  _397
REMARK  175  A    between atoms: _400  and  _402
REMARK  176  A    between atoms: _402  and  _403
REMARK  177  A    between atoms: _402  and  _405
REMARK  178  A    between atoms: _405  and  _406
REMARK  179  A    between atoms: _406  and  _407
REMARK  180  A    between atoms: _407  and  _408
REMARK  181  A    between atoms: _417  and  _419
REMARK  182  A    between atoms: _419  and  _420
REMARK  183  A    between atoms: _419  and  _422
REMARK  184  A    between atoms: _422  and  _423
REMARK  185  A    between atoms: _428  and  _429
REMARK  186  A    between atoms: _431  and  _433
REMARK  187  A    between atoms: _433  and  _434
REMARK  188  A    between atoms: _433  and  _436
REMARK  189  A    between atoms: _436  and  _437
REMARK  190  A    between atoms: _437  and  _438
REMARK  191  A    between atoms: _438  and  _439
REMARK  192  A    between atoms: _448  and  _450
REMARK  193  A    between atoms: _450  and  _451
REMARK  194  A    between atoms: _450  and  _453
REMARK  195  A    between atoms: _453  and  _454
REMARK  196  A    between atoms: _457  and  _459
REMARK  197  A    between atoms: _459  and  _460
REMARK  198  A    between atoms: _459  and  _462
REMARK  199  A    between atoms: _462  and  _463
REMARK  200  A    between atoms: _466  and  _468
REMARK  201  A    between atoms: _468  and  _469
REMARK  202  A    between atoms: _468  and  _471
REMARK  203  A    between atoms: _471  and  _472
REMARK  204  A    between atoms: _472  and  _473
REMARK  205  A    between atoms: _473  and  _474
REMARK  206  A    between atoms: _474  and  _475
REMARK  207  A    between atoms: _480  and  _481
REMARK  208  A    between atoms: _486  and  _488
REMARK  209  A    between atoms: _488  and  _489
REMARK  210  A    between atoms: _488  and  _491
REMARK  211  A    between atoms: _491  and  _492
REMARK  212  A    between atoms: _492  and  _493
REMARK  213  A    between atoms: _496  and  _498
REMARK  214  A    between atoms: _498  and  _499
REMARK  215  A    between atoms: _498  and  _501
REMARK  216  A    between atoms: _501  and  _502
REMARK  217  A    between atoms: _507  and  _509
REMARK  218  A    between atoms: _509  and  _510
REMARK  219  A    between atoms: _509  and  _512
REMARK  220  A    between atoms: _512  and  _513
REMARK  221  A    between atoms: _516  and  _518
REMARK  222  A    between atoms: _518  and  _519
REMARK  223  A    between atoms: _518  and  _521
REMARK  224  A    between atoms: _521  and  _522
REMARK  225  A    between atoms: _525  and  _527
REMARK  226  A    between atoms: _527  and  _528
REMARK  227  A    between atoms: _527  and  _530
REMARK  228  A    between atoms: _530  and  _531
REMARK  229  A    between atoms: _534  and  _536
REMARK  230  A    between atoms: _536  and  _537
REMARK  231  A    between atoms: _536  and  _539
REMARK  232  A    between atoms: _539  and  _540
REMARK  233  A    between atoms: _543  and  _545
REMARK  234  A    between atoms: _545  and  _546
REMARK  235  A    between atoms: _545  and  _548
REMARK  236  A    between atoms: _548  and  _549
REMARK  237  A    between atoms: _549  and  _550
REMARK  238  A    between atoms: _555  and  _557
REMARK  239  A    between atoms: _557  and  _558
REMARK  240  A    between atoms: _557  and  _560
REMARK  241  A    between atoms: _563  and  _565
REMARK  242  A    between atoms: _565  and  _566
REMARK  243  A    between atoms: _565  and  _568
REMARK  244  A    between atoms: _568  and  _569
REMARK  245  A    between atoms: _572  and  _574
REMARK  246  A    between atoms: _574  and  _575
REMARK  247  A    between atoms: _574  and  _577
REMARK  248  A    between atoms: _577  and  _578
REMARK  249  A    between atoms: _581  and  _583
REMARK  250  A    between atoms: _583  and  _584
REMARK  251  A    between atoms: _583  and  _586
REMARK  252  A    between atoms: _586  and  _587
REMARK  253  A    between atoms: _593  and  _595
REMARK  254  A    between atoms: _595  and  _596
REMARK  255  A    between atoms: _598  and  _600
REMARK  256  A    between atoms: _600  and  _601
REMARK  257  A    between atoms: _600  and  _603
REMARK  258  A    between atoms: _603  and  _604
REMARK  259  A    between atoms: _610  and  _612
REMARK  260  A    between atoms: _612  and  _613
REMARK  261  A    between atoms: _612  and  _615
REMARK  262  A    between atoms: _617  and  _619
REMARK  263  A    between atoms: _619  and  _620
REMARK  264  A    between atoms: _622  and  _624
REMARK  265  A    between atoms: _624  and  _625
REMARK  266  A    between atoms: _624  and  _627
REMARK  267  A    between atoms: _627  and  _628
REMARK  268  A    between atoms: _632  and  _633
REMARK  269  A    between atoms: _638  and  _640
REMARK  270  A    between atoms: _640  and  _641
REMARK  271  A    between atoms: _640  and  _643
REMARK  272  A    between atoms: _643  and  _644
REMARK  273  A    between atoms: _644  and  _645
REMARK  274  A    between atoms: _648  and  _650
REMARK  275  A    between atoms: _650  and  _651
REMARK  276  A    between atoms: _650  and  _653
REMARK  277  A    between atoms: _653  and  _654
REMARK  278  A    between atoms: _659  and  _660
REMARK  279  A    between atoms: _662  and  _664
REMARK  280  A    between atoms: _664  and  _665
REMARK  281  A    between atoms: _664  and  _667
REMARK  282  A    between atoms: _670  and  _672
REMARK  283  A    between atoms: _672  and  _673
REMARK  284  A    between atoms: _672  and  _675
REMARK  285  A    between atoms: _675  and  _676
REMARK  286  A    between atoms: _679  and  _681
REMARK  287  A    between atoms: _681  and  _682
REMARK  288  A    between atoms: _681  and  _684
REMARK  289  A    between atoms: _684  and  _685
REMARK  290  A    between atoms: _685  and  _686
REMARK  291  A    between atoms: _689  and  _691
REMARK  292  A    between atoms: _691  and  _692
REMARK  293  A    between atoms: _694  and  _696
REMARK  294  A    between atoms: _696  and  _697
REMARK  295  A    between atoms: _696  and  _699
REMARK  296  A    between atoms: _699  and  _700
REMARK  297  A    between atoms: _705  and  _706
REMARK  298  A    between atoms: _709  and  _710
REMARK  299  A    between atoms: _716  and  _717
REMARK  300  A    between atoms: _722  and  _724
REMARK  301  A    between atoms: _724  and  _725
REMARK  302  A    between atoms: _724  and  _727
REMARK  303  A    between atoms: _727  and  _728
REMARK  304  A    between atoms: _734  and  _736
REMARK  305  A    between atoms: _736  and  _737
REMARK  306  A    between atoms: _736  and  _739
REMARK  307  A    between atoms: _739  and  _740
REMARK  308  A    between atoms: _746  and  _748
REMARK  309  A    between atoms: _748  and  _749
REMARK  310  A    between atoms: _752  and  _754
REMARK  311  A    between atoms: _754  and  _755
REMARK  312  A    between atoms: _754  and  _757
REMARK  313  A    between atoms: _757  and  _758
REMARK                            x       y       z     vdW  Elec       q    Type
REMARK                         _______ _______ _______ _____ _____    ______ ____
ROOT
ATOM      1  C   VAL A   6       5.713   6.661  19.197  0.00  0.00    +0.244 C 
ATOM      2  N   PRO A   7       4.433   6.817  19.580  0.00  0.00    -0.272 N 
ATOM      3  CD  PRO A   7       3.719   6.191  20.712  0.00  0.00    +0.094 C 
ATOM      4  CG  PRO A   7       2.314   6.760  20.607  0.00  0.00    +0.024 C 
ATOM      5  CB  PRO A   7       2.151   7.168  19.182  0.00  0.00    +0.031 C 
ATOM      6  CA  PRO A   7       3.552   7.608  18.740  0.00  0.00    +0.152 C 
ATOM      7  O   VAL A   6       6.143   7.084  18.120  0.00  0.00    -0.273 OA
ENDROOT
BRANCH   6   8
ATOM      8  C   PRO A   7       3.803   9.076  19.044  0.00  0.00    +0.241 C 
ATOM      9  O   PRO A   7       4.391   9.397  20.084  0.00  0.00    -0.273 OA
ATOM     10  N   GLY A   8       3.373   9.965  18.160  0.00  0.00    -0.295 N 
ATOM     11  H   GLY A   8       2.853   9.651  17.316  0.00  0.00    +0.150 HD
BRANCH  10  12
ATOM     12  CA  GLY A   8       3.631  11.388  18.374  0.00  0.00    +0.176 C 
BRANCH  12  13
ATOM     13  C   GLY A   8       4.384  12.077  17.248  0.00  0.00    +0.243 C 
ATOM     14  O   GLY A   8       4.269  13.296  17.079  0.00  0.00    -0.273 OA
ATOM     15  N   GLY A   9       5.166  11.308  16.494  0.00  0.00    -0.295 N 
ATOM     16  H   GLY A   9       5.283  10.306  16.747  0.00  0.00    +0.150 HD
BRANCH  15  17
ATOM     17  CA  GLY A   9       5.866  11.830  15.319  0.00  0.00    +0.176 C 
BRANCH  17  18
ATOM     18  C   GLY A   9       7.278  12.317  15.608  0.00  0.00    +0.243 C 
ATOM     19  O   GLY A   9       7.675  12.480  16.763  0.00  0.00    -0.273 OA
ATOM     20  N   GLU A  10       8.036  12.569  14.548  0.00  0.00    -0.297 N 
ATOM     21  H   GLU A  10       7.627  12.487  13.595  0.00  0.00    +0.150 HD
BRANCH  20  22
ATOM     22  CA  GLU A  10       9.427  12.958  14.697  0.00  0.00    +0.149 C 
BRANCH  22  23
ATOM     23  C   GLU A  10       9.510  14.486  14.806  0.00  0.00    +0.241 C 
ATOM     24  N   MET A  11      10.557  14.981  15.461  0.00  0.00    -0.297 N 
ATOM     25  H   MET A  11      11.280  14.327  15.825  0.00  0.00    +0.150 HD
ATOM     26  O   GLU A  10       8.632  15.200  14.316  0.00  0.00    -0.273 OA
BRANCH  24  27
ATOM     27  CA  MET A  11      10.723  16.424  15.686  0.00  0.00    +0.149 C 
BRANCH  27  28
ATOM     28  C   MET A  11      10.790  17.253  14.403  0.00  0.00    +0.241 C 
ATOM     29  O   MET A  11      10.324  18.400  14.374  0.00  0.00    -0.273 OA
ATOM     30  N   PHE A  12      11.373  16.672  13.361  0.00  0.00    -0.297 N 
ATOM     31  H   PHE A  12      11.778  15.722  13.483  0.00  0.00    +0.150 HD
BRANCH  30  32
ATOM     32  CA  PHE A  12      11.470  17.311  12.050  0.00  0.00    +0.153 C 
BRANCH  32  33
ATOM     33  C   PHE A  12      10.101  17.805  11.556  0.00  0.00    +0.241 C 
ATOM     34  N   SER A  13       9.108  16.918  11.521  0.00  0.00    -0.296 N 
ATOM     35  H   SER A  13       9.291  15.936  11.810  0.00  0.00    +0.150 HD
ATOM     36  O   PHE A  12       9.944  18.979  11.245  0.00  0.00    -0.273 OA
BRANCH  34  37
ATOM     37  CA  SER A  13       7.757  17.300  11.081  0.00  0.00    +0.166 C 
BRANCH  37  38
ATOM     38  CB  SER A  13       7.108  18.361  11.969  0.00  0.00    +0.229 C 
ATOM     39  OG  SER A  13       6.436  19.255  11.470  0.00  0.00    -0.286 OA
ENDBRANCH  37  38
BRANCH  37  40
ATOM     40  C   SER A  13       6.848  16.076  10.980  0.00  0.00    +0.165 C 
BRANCH  40  41
ATOM     41  O   SER A  13       7.499  15.057  10.251  0.00  0.00    -0.380 OA
ATOM     42  H   SER A  13       8.337  14.806  10.714  0.00  0.00    +0.211 HD
ENDBRANCH  40  41
ENDBRANCH  37  40
ENDBRANCH  34  37
ENDBRANCH  32  33
BRANCH  32  43
ATOM     43  CB  PHE A  12      12.132  16.352  11.048  0.00  0.00    +0.055 C 
BRANCH  43  44
ATOM     44  CG  PHE A  12      12.251  16.899   9.653  0.00  0.00    -0.020 A 
ATOM     45  CD2 PHE A  12      13.409  17.555   9.248  0.00  0.00    -0.004 A 
ATOM     46  CE2 PHE A  12      13.534  18.054   7.944  0.00  0.00    -0.000 A 
ATOM     47  CZ  PHE A  12      12.489  17.890   7.036  0.00  0.00    -0.000 A 
ATOM     48  CE1 PHE A  12      11.332  17.227   7.428  0.00  0.00    -0.000 A 
ATOM     49  CD1 PHE A  12      11.219  16.726   8.727  0.00  0.00    -0.004 A 
ENDBRANCH  43  44
ENDBRANCH  32  43
ENDBRANCH  30  32
ENDBRANCH  27  28
BRANCH  27  50
ATOM     50  CB  MET A  11      11.952  16.704  16.536  0.00  0.00    +0.041 C 
BRANCH  50  51
ATOM     51  CG  MET A  11      12.196  18.197  16.796  0.00  0.00    +0.060 C 
BRANCH  51  52
ATOM     52  SD  MET A  11      13.834  18.496  17.458  0.00  0.00    -0.139 S 
ATOM     53  CE  MET A  11      13.704  17.695  19.053  0.00  0.00    +0.069 C 
ENDBRANCH  51  52
ENDBRANCH  50  51
ENDBRANCH  27  50
ENDBRANCH  24  27
ENDBRANCH  22  23
BRANCH  22  54
ATOM     54  CB  GLU A  10      10.246  12.412  13.513  0.00  0.00    +0.041 C 
BRANCH  54  55
ATOM     55  CG  GLU A  10      10.236  13.340  12.300  0.00  0.00    +0.116 C 
BRANCH  55  56
ATOM     56  CD  GLU A  10      10.082  12.615  10.989  0.00  0.00    +0.365 C 
ATOM     57  OE2 GLU A  10      10.775  11.586  10.767  0.00  0.00    -0.246 OA
ATOM     58  OE1 GLU A  10       9.267  13.096  10.168  0.00  0.00    -0.246 OA
ENDBRANCH  55  56
ENDBRANCH  54  55
ENDBRANCH  22  54
ENDBRANCH  20  22
ENDBRANCH  17  18
ENDBRANCH  15  17
ENDBRANCH  12  13
ENDBRANCH  10  12
ENDBRANCH   6   8
BRANCH   1  59
ATOM     59  CA  VAL A   6       6.622   5.885  20.141  0.00  0.00    +0.149 C 
BRANCH  59  62
ATOM     60  C   TYR A   5       6.250   3.501  20.484  0.00  0.00    +0.241 C 
ATOM     61  O   TYR A   5       5.706   3.694  21.562  0.00  0.00    -0.273 OA
ATOM     62  N   VAL A   6       6.701   4.493  19.716  0.00  0.00    -0.297 N 
ATOM     63  H   VAL A   6       7.119   4.268  18.791  0.00  0.00    +0.150 HD
BRANCH  60  64
ATOM     64  CA  TYR A   5       6.425   2.074  19.950  0.00  0.00    +0.153 C 
BRANCH  64  66
ATOM     65  C   GLU A   4       8.448   1.197  21.000  0.00  0.00    +0.241 C 
ATOM     66  N   TYR A   5       7.119   1.231  20.902  0.00  0.00    -0.297 N 
ATOM     67  H   TYR A   5       6.557   0.627  21.535  0.00  0.00    +0.150 HD
ATOM     68  O   GLU A   4       9.204   1.896  20.308  0.00  0.00    -0.273 OA
BRANCH  65  69
ATOM     69  CA  GLU A   4       9.005   0.196  22.001  0.00  0.00    +0.149 C 
BRANCH  69  71
ATOM     70  C   MET A   3      10.120  -1.069  20.256  0.00  0.00    +0.241 C 
ATOM     71  N   GLU A   4      10.187  -0.443  21.432  0.00  0.00    -0.297 N 
ATOM     72  H   GLU A   4      11.089  -0.410  21.948  0.00  0.00    +0.150 HD
ATOM     73  O   MET A   3       9.058  -1.268  19.658  0.00  0.00    -0.273 OA
BRANCH  70  74
ATOM     74  CA  MET A   3      11.428  -1.482  19.630  0.00  0.00    +0.149 C 
BRANCH  74  77
ATOM     75  C   VAL A   2      11.715  -3.861  19.031  0.00  0.00    +0.241 C 
ATOM     76  O   VAL A   2      12.370  -4.136  20.042  0.00  0.00    -0.273 OA
ATOM     77  N   MET A   3      11.216  -2.658  18.772  0.00  0.00    -0.297 N 
ATOM     78  H   MET A   3      10.642  -2.540  17.913  0.00  0.00    +0.150 HD
BRANCH  75  79
ATOM     79  CA  VAL A   2      11.474  -4.915  17.951  0.00  0.00    +0.148 C 
BRANCH  79  81
ATOM     80  C   MET A   1      13.172  -4.803  16.217  0.00  0.00    +0.238 C 
ATOM     81  N   VAL A   2      12.762  -5.282  17.385  0.00  0.00    -0.297 N 
ATOM     82  H   VAL A   2      13.378  -5.936  17.909  0.00  0.00    +0.150 HD
ATOM     83  O   MET A   1      12.551  -3.963  15.566  0.00  0.00    -0.274 OA
BRANCH  80  84
ATOM     84  CA  MET A   1      14.496  -5.364  15.719  0.00  0.00    +0.146 C 
BRANCH  84  85
ATOM     85  N   MET A   1      14.236  -6.101  14.491  0.00  0.00    -0.238 NA
ATOM     86  H   MET A   1      13.831  -5.594  13.678  0.00  0.00    +0.142 HD
ENDBRANCH  84  85
BRANCH  84  87
ATOM     87  CB  MET A   1      15.493  -4.245  15.479  0.00  0.00    +0.038 C 
BRANCH  87  88
ATOM     88  CG  MET A   1      16.875  -4.762  15.067  0.00  0.00    +0.060 C 
BRANCH  88  89
ATOM     89  SD  MET A   1      18.033  -3.411  14.747  0.00  0.00    -0.139 S 
ATOM     90  CE  MET A   1      18.522  -3.042  16.387  0.00  0.00    +0.069 C 
ENDBRANCH  88  89
ENDBRANCH  87  88
ENDBRANCH  84  87
ENDBRANCH  80  84
ENDBRANCH  79  81
BRANCH  79  91
ATOM     91  CB  VAL A   2      10.728  -6.157  18.496  0.00  0.00    +0.027 C 
ATOM     92  CG2 VAL A   2       9.383  -5.768  19.123  0.00  0.00    +0.002 C 
ATOM     93  CG1 VAL A   2      10.501  -7.182  17.363  0.00  0.00    +0.002 C 
ENDBRANCH  79  91
ENDBRANCH  75  79
ENDBRANCH  74  77
BRANCH  74  94
ATOM     94  CB  MET A   3      11.885  -0.295  18.798  0.00  0.00    +0.041 C 
BRANCH  94  95
ATOM     95  CG  MET A   3      12.723  -0.626  17.601  0.00  0.00    +0.060 C 
BRANCH  95  96
ATOM     96  SD  MET A   3      14.322  -1.222  18.106  0.00  0.00    -0.139 S 
ATOM     97  CE  MET A   3      14.968   0.251  18.912  0.00  0.00    +0.069 C 
ENDBRANCH  95  96
ENDBRANCH  94  95
ENDBRANCH  74  94
ENDBRANCH  70  74
ENDBRANCH  69  71
BRANCH  69  98
ATOM     98  CB  GLU A   4       9.300   0.830  23.383  0.00  0.00    +0.041 C 
BRANCH  98  99
ATOM     99  CG  GLU A   4       9.372  -0.245  24.497  0.00  0.00    +0.116 C 
BRANCH  99 100
ATOM    100  CD  GLU A   4       9.530   0.299  25.932  0.00  0.00    +0.365 C 
ATOM    101  OE2 GLU A   4       9.117  -0.412  26.876  0.00  0.00    -0.246 OA
ATOM    102  OE1 GLU A   4      10.071   1.411  26.124  0.00  0.00    -0.246 OA
ENDBRANCH  99 100
ENDBRANCH  98  99
ENDBRANCH  69  98
ENDBRANCH  65  69
ENDBRANCH  64  66
BRANCH  64 103
ATOM    103  CB  TYR A   5       5.062   1.442  19.589  0.00  0.00    +0.055 C 
BRANCH 103 104
ATOM    104  CG  TYR A   5       4.168   2.328  18.748  0.00  0.00    -0.020 A 
ATOM    105  CD2 TYR A   5       2.889   2.696  19.197  0.00  0.00    -0.001 A 
ATOM    106  CE2 TYR A   5       2.062   3.523  18.429  0.00  0.00    +0.036 A 
ATOM    107  CZ  TYR A   5       2.518   3.988  17.204  0.00  0.00    +0.134 A 
ATOM    108  CE1 TYR A   5       3.787   3.648  16.743  0.00  0.00    +0.036 A 
ATOM    109  CD1 TYR A   5       4.597   2.815  17.517  0.00  0.00    -0.001 A 
BRANCH 107 110
ATOM    110  OH  TYR A   5       1.728   4.806  16.440  0.00  0.00    -0.506 OA
ATOM    111  HH  TYR A   5       2.207   5.040  15.606  0.00  0.00    +0.292 HD
ENDBRANCH 107 110
ENDBRANCH 103 104
ENDBRANCH  64 103
ENDBRANCH  60  64
ENDBRANCH  59  62
BRANCH  59 112
ATOM    112  CB  VAL A   6       8.027   6.546  20.237  0.00  0.00    +0.027 C 
ATOM    113  CG2 VAL A   6       8.944   5.702  21.078  0.00  0.00    +0.002 C 
ATOM    114  CG1 VAL A   6       7.941   7.957  20.842  0.00  0.00    +0.002 C 
ENDBRANCH  59 112
ENDBRANCH   1  59
TORSDOF 49
REMARK  Name = ../refined-set-2016/3ag9/3ag9_pocket.pdb
REMARK  313 active torsions:
REMARK  status: ('A' for Active; 'I' for Inactive)
REMARK    1  A    between atoms: _1  and  _3
REMARK    2  A    between atoms: _3  and  _4
REMARK    3  A    between atoms: _3  and  _6
REMARK    4  A    between atoms: _6  and  _7
REMARK    5  A    between atoms: _10  and  _12
REMARK    6  A    between atoms: _12  and  _13
REMARK    7  A    between atoms: _12  and  _15
REMARK    8  A    between atoms: _15  and  _16
REMARK    9  A    between atoms: _19  and  _21
REMARK   10  A    between atoms: _21  and  _22
REMARK   11  A    between atoms: _24  and  _26
REMARK   12  A    between atoms: _26  and  _27
REMARK   13  A    between atoms: _26  and  _29
REMARK   14  A    between atoms: _29  and  _30
REMARK   15  A    between atoms: _33  and  _35
REMARK   16  A    between atoms: _35  and  _36
REMARK   17  A    between atoms: _38  and  _40
REMARK   18  A    between atoms: _40  and  _41
REMARK   19  A    between atoms: _40  and  _43
REMARK   20  A    between atoms: _43  and  _44
REMARK   21  A    between atoms: _46  and  _48
REMARK   22  A    between atoms: _48  and  _49
REMARK   23  A    between atoms: _48  and  _51
REMARK   24  A    between atoms: _51  and  _52
REMARK   25  A    between atoms: _58  and  _60
REMARK   26  A    between atoms: _60  and  _61
REMARK   27  A    between atoms: _63  and  _65
REMARK   28  A    between atoms: _65  and  _66
REMARK   29  A    between atoms: _65  and  _68
REMARK   30  A    between atoms: _68  and  _69
REMARK   31  A    between atoms: _69  and  _70
REMARK   32  A    between atoms: _70  and  _71
REMARK   33  A    between atoms: _80  and  _82
REMARK   34  A    between atoms: _82  and  _83
REMARK   35  A    between atoms: _82  and  _85
REMARK   36  A    between atoms: _88  and  _90
REMARK   37  A    between atoms: _90  and  _91
REMARK   38  A    between atoms: _90  and  _93
REMARK   39  A    between atoms: _93  and  _94
REMARK   40  A    between atoms: _94  and  _95
REMARK   41  A    between atoms: _97  and  _99
REMARK   42  A    between atoms: _99  and  _100
REMARK   43  A    between atoms: _99  and  _102
REMARK   44  A    between atoms: _102  and  _103
REMARK   45  A    between atoms: _106  and  _108
REMARK   46  A    between atoms: _108  and  _109
REMARK   47  A    between atoms: _108  and  _111
REMARK   48  A    between atoms: _111  and  _112
REMARK   49  A    between atoms: _117  and  _118
REMARK   50  A    between atoms: _120  and  _122
REMARK   51  A    between atoms: _122  and  _123
REMARK   52  A    between atoms: _126  and  _128
REMARK   53  A    between atoms: _128  and  _129
REMARK   54  A    between atoms: _128  and  _131
REMARK   55  A    between atoms: _131  and  _132
REMARK   56  A    between atoms: _132  and  _133
REMARK   57  A    between atoms: _135  and  _137
REMARK   58  A    between atoms: _137  and  _138
REMARK   59  A    between atoms: _137  and  _140
REMARK   60  A    between atoms: _140  and  _141
REMARK   61  A    between atoms: _141  and  _142
REMARK   62  A    between atoms: _142  and  _143
REMARK   63  A    between atoms: _143  and  _144
REMARK   64  A    between atoms: _148  and  _150
REMARK   65  A    between atoms: _150  and  _151
REMARK   66  A    between atoms: _150  and  _153
REMARK   67  A    between atoms: _153  and  _154
REMARK   68  A    between atoms: _157  and  _159
REMARK   69  A    between atoms: _159  and  _160
REMARK   70  A    between atoms: _159  and  _162
REMARK   71  A    between atoms: _162  and  _163
REMARK   72  A    between atoms: _166  and  _168
REMARK   73  A    between atoms: _168  and  _169
REMARK   74  A    between atoms: _168  and  _171
REMARK   75  A    between atoms: _171  and  _172
REMARK   76  A    between atoms: _175  and  _177
REMARK   77  A    between atoms: _177  and  _178
REMARK   78  A    between atoms: _177  and  _180
REMARK   79  A    between atoms: _180  and  _181
REMARK   80  A    between atoms: _181  and  _182
REMARK   81  A    between atoms: _182  and  _183
REMARK   82  A    between atoms: _183  and  _184
REMARK   83  A    between atoms: _188  and  _190
REMARK   84  A    between atoms: _190  and  _191
REMARK   85  A    between atoms: _190  and  _193
REMARK   86  A    between atoms: _196  and  _198
REMARK   87  A    between atoms: _198  and  _199
REMARK   88  A    between atoms: _198  and  _201
REMARK   89  A    between atoms: _201  and  _202
REMARK   90  A    between atoms: _205  and  _207
REMARK   91  A    between atoms: _207  and  _208
REMARK   92  A    between atoms: _207  and  _210
REMARK   93  A    between atoms: _210  and  _211
REMARK   94  A    between atoms: _211  and  _212
REMARK   95  A    between atoms: _217  and  _219
REMARK   96  A    between atoms: _219  and  _220
REMARK   97  A    between atoms: _219  and  _222
REMARK   98  A    between atoms: _222  and  _223
REMARK   99  A    between atoms: _228  and  _230
REMARK  100  A    between atoms: _230  and  _231
REMARK  101  A    between atoms: _230  and  _233
REMARK  102  A    between atoms: _233  and  _234
REMARK  103  A    between atoms: _237  and  _239
REMARK  104  A    between atoms: _239  and  _240
REMARK  105  A    between atoms: _239  and  _242
REMARK  106  A    between atoms: _242  and  _243
REMARK  107  A    between atoms: _243  and  _244
REMARK  108  A    between atoms: _247  and  _249
REMARK  109  A    between atoms: _249  and  _250
REMARK  110  A    between atoms: _249  and  _252
REMARK  111  A    between atoms: _255  and  _257
REMARK  112  A    between atoms: _257  and  _258
REMARK  113  A    between atoms: _257  and  _260
REMARK  114  A    between atoms: _260  and  _261
REMARK  115  A    between atoms: _261  and  _262
REMARK  116  A    between atoms: _262  and  _263
REMARK  117  A    between atoms: _263  and  _264
REMARK  118  A    between atoms: _268  and  _270
REMARK  119  A    between atoms: _270  and  _271
REMARK  120  A    between atoms: _270  and  _273
REMARK  121  A    between atoms: _273  and  _274
REMARK  122  A    between atoms: _277  and  _279
REMARK  123  A    between atoms: _279  and  _280
REMARK  124  A    between atoms: _279  and  _282
REMARK  125  A    between atoms: _282  and  _283
REMARK  126  A    between atoms: _283  and  _284
REMARK  127  A    between atoms: _286  and  _288
REMARK  128  A    between atoms: _288  and  _289
REMARK  129  A    between atoms: _288  and  _291
REMARK  130  A    between atoms: _294  and  _296
REMARK  131  A    between atoms: _296  and  _297
REMARK  132  A    between atoms: _296  and  _299
REMARK  133  A    between atoms: _299  and  _300
REMARK  134  A    between atoms: _300  and  _301
REMARK  135  A    between atoms: _303  and  _305
REMARK  136  A    between atoms: _305  and  _306
REMARK  137  A    between atoms: _305  and  _308
REMARK  138  A    between atoms: _308  and  _309
REMARK  139  A    between atoms: _309  and  _310
REMARK  140  A    between atoms: _313  and  _315
REMARK  141  A    between atoms: _315  and  _316
REMARK  142  A    between atoms: _315  and  _318
REMARK  143  A    between atoms: _318  and  _319
REMARK  144  A    between atoms: _324  and  _325
REMARK  145  A    between atoms: _327  and  _329
REMARK  146  A    between atoms: _329  and  _330
REMARK  147  A    between atoms: _329  and  _332
REMARK  148  A    between atoms: _336  and  _337
REMARK  149  A    between atoms: _342  and  _344
REMARK  150  A    between atoms: _344  and  _345
REMARK  151  A    between atoms: _347  and  _349
REMARK  152  A    between atoms: _349  and  _350
REMARK  153  A    between atoms: _352  and  _354
REMARK  154  A    between atoms: _354  and  _355
REMARK  155  A    between atoms: _354  and  _357
REMARK  156  A    between atoms: _357  and  _358
REMARK  157  A    between atoms: _358  and  _359
REMARK  158  A    between atoms: _362  and  _364
REMARK  159  A    between atoms: _364  and  _365
REMARK  160  A    between atoms: _364  and  _367
REMARK  161  A    between atoms: _367  and  _368
REMARK  162  A    between atoms: _368  and  _369
REMARK  163  A    between atoms: _371  and  _373
REMARK  164  A    between atoms: _373  and  _374
REMARK  165  A    between atoms: _373  and  _376
REMARK  166  A    between atoms: _376  and  _377
REMARK  167  A    between atoms: _383  and  _385
REMARK  168  A    between atoms: _385  and  _386
REMARK  169  A    between atoms: _385  and  _388
REMARK  170  A    between atoms: _388  and  _389
REMARK  171  A    between atoms: _391  and  _393
REMARK  172  A    between atoms: _393  and  _394
REMARK  173  A    between atoms: _393  and  _396
REMARK  174  A    between atoms: _396  and  _397
REMARK  175  A    between atoms: _400  and  _402
REMARK  176  A    between atoms: _402  and  _403
REMARK  177  A    between atoms: _402  and  _405
REMARK  178  A    between atoms: _405  and  _406
REMARK  179  A    between atoms: _406  and  _407
REMARK  180  A    between atoms: _407  and  _408
REMARK  181  A    between atoms: _417  and  _419
REMARK  182  A    between atoms: _419  and  _420
REMARK  183  A    between atoms: _419  and  _422
REMARK  184  A    between atoms: _422  and  _423
REMARK  185  A    between atoms: _428  and  _429
REMARK  186  A    between atoms: _431  and  _433
REMARK  187  A    between atoms: _433  and  _434
REMARK  188  A    between atoms: _433  and  _436
REMARK  189  A    between atoms: _436  and  _437
REMARK  190  A    between atoms: _437  and  _438
REMARK  191  A    between atoms: _438  and  _439
REMARK  192  A    between atoms: _448  and  _450
REMARK  193  A    between atoms: _450  and  _451
REMARK  194  A    between atoms: _450  and  _453
REMARK  195  A    between atoms: _453  and  _454
REMARK  196  A    between atoms: _457  and  _459
REMARK  197  A    between atoms: _459  and  _460
REMARK  198  A    between atoms: _459  and  _462
REMARK  199  A    between atoms: _462  and  _463
REMARK  200  A    between atoms: _466  and  _468
REMARK  201  A    between atoms: _468  and  _469
REMARK  202  A    between atoms: _468  and  _471
REMARK  203  A    between atoms: _471  and  _472
REMARK  204  A    between atoms: _472  and  _473
REMARK  205  A    between atoms: _473  and  _474
REMARK  206  A    between atoms: _474  and  _475
REMARK  207  A    between atoms: _480  and  _481
REMARK  208  A    between atoms: _486  and  _488
REMARK  209  A    between atoms: _488  and  _489
REMARK  210  A    between atoms: _488  and  _491
REMARK  211  A    between atoms: _491  and  _492
REMARK  212  A    between atoms: _492  and  _493
REMARK  213  A    between atoms: _496  and  _498
REMARK  214  A    between atoms: _498  and  _499
REMARK  215  A    between atoms: _498  and  _501
REMARK  216  A    between atoms: _501  and  _502
REMARK  217  A    between atoms: _507  and  _509
REMARK  218  A    between atoms: _509  and  _510
REMARK  219  A    between atoms: _509  and  _512
REMARK  220  A    between atoms: _512  and  _513
REMARK  221  A    between atoms: _516  and  _518
REMARK  222  A    between atoms: _518  and  _519
REMARK  223  A    between atoms: _518  and  _521
REMARK  224  A    between atoms: _521  and  _522
REMARK  225  A    between atoms: _525  and  _527
REMARK  226  A    between atoms: _527  and  _528
REMARK  227  A    between atoms: _527  and  _530
REMARK  228  A    between atoms: _530  and  _531
REMARK  229  A    between atoms: _534  and  _536
REMARK  230  A    between atoms: _536  and  _537
REMARK  231  A    between atoms: _536  and  _539
REMARK  232  A    between atoms: _539  and  _540
REMARK  233  A    between atoms: _543  and  _545
REMARK  234  A    between atoms: _545  and  _546
REMARK  235  A    between atoms: _545  and  _548
REMARK  236  A    between atoms: _548  and  _549
REMARK  237  A    between atoms: _549  and  _550
REMARK  238  A    between atoms: _555  and  _557
REMARK  239  A    between atoms: _557  and  _558
REMARK  240  A    between atoms: _557  and  _560
REMARK  241  A    between atoms: _563  and  _565
REMARK  242  A    between atoms: _565  and  _566
REMARK  243  A    between atoms: _565  and  _568
REMARK  244  A    between atoms: _568  and  _569
REMARK  245  A    between atoms: _572  and  _574
REMARK  246  A    between atoms: _574  and  _575
REMARK  247  A    between atoms: _574  and  _577
REMARK  248  A    between atoms: _577  and  _578
REMARK  249  A    between atoms: _581  and  _583
REMARK  250  A    between atoms: _583  and  _584
REMARK  251  A    between atoms: _583  and  _586
REMARK  252  A    between atoms: _586  and  _587
REMARK  253  A    between atoms: _593  and  _595
REMARK  254  A    between atoms: _595  and  _596
REMARK  255  A    between atoms: _598  and  _600
REMARK  256  A    between atoms: _600  and  _601
REMARK  257  A    between atoms: _600  and  _603
REMARK  258  A    between atoms: _603  and  _604
REMARK  259  A    between atoms: _610  and  _612
REMARK  260  A    between atoms: _612  and  _613
REMARK  261  A    between atoms: _612  and  _615
REMARK  262  A    between atoms: _617  and  _619
REMARK  263  A    between atoms: _619  and  _620
REMARK  264  A    between atoms: _622  and  _624
REMARK  265  A    between atoms: _624  and  _625
REMARK  266  A    between atoms: _624  and  _627
REMARK  267  A    between atoms: _627  and  _628
REMARK  268  A    between atoms: _632  and  _633
REMARK  269  A    between atoms: _638  and  _640
REMARK  270  A    between atoms: _640  and  _641
REMARK  271  A    between atoms: _640  and  _643
REMARK  272  A    between atoms: _643  and  _644
REMARK  273  A    between atoms: _644  and  _645
REMARK  274  A    between atoms: _648  and  _650
REMARK  275  A    between atoms: _650  and  _651
REMARK  276  A    between atoms: _650  and  _653
REMARK  277  A    between atoms: _653  and  _654
REMARK  278  A    between atoms: _659  and  _660
REMARK  279  A    between atoms: _662  and  _664
REMARK  280  A    between atoms: _664  and  _665
REMARK  281  A    between atoms: _664  and  _667
REMARK  282  A    between atoms: _670  and  _672
REMARK  283  A    between atoms: _672  and  _673
REMARK  284  A    between atoms: _672  and  _675
REMARK  285  A    between atoms: _675  and  _676
REMARK  286  A    between atoms: _679  and  _681
REMARK  287  A    between atoms: _681  and  _682
REMARK  288  A    between atoms: _681  and  _684
REMARK  289  A    between atoms: _684  and  _685
REMARK  290  A    between atoms: _685  and  _686
REMARK  291  A    between atoms: _689  and  _691
REMARK  292  A    between atoms: _691  and  _692
REMARK  293  A    between atoms: _694  and  _696
REMARK  294  A    between atoms: _696  and  _697
REMARK  295  A    between atoms: _696  and  _699
REMARK  296  A    between atoms: _699  and  _700
REMARK  297  A    between atoms: _705  and  _706
REMARK  298  A    between atoms: _709  and  _710
REMARK  299  A    between atoms: _716  and  _717
REMARK  300  A    between atoms: _722  and  _724
REMARK  301  A    between atoms: _724  and  _725
REMARK  302  A    between atoms: _724  and  _727
REMARK  303  A    between atoms: _727  and  _728
REMARK  304  A    between atoms: _734  and  _736
REMARK  305  A    between atoms: _736  and  _737
REMARK  306  A    between atoms: _736  and  _739
REMARK  307  A    between atoms: _739  and  _740
REMARK  308  A    between atoms: _746  and  _748
REMARK  309  A    between atoms: _748  and  _749
REMARK  310  A    between atoms: _752  and  _754
REMARK  311  A    between atoms: _754  and  _755
REMARK  312  A    between atoms: _754  and  _757
REMARK  313  A    between atoms: _757  and  _758
REMARK                            x       y       z     vdW  Elec       q    Type
REMARK                         _______ _______ _______ _____ _____    ______ ____
ROOT
ATOM      1  CA  ARG A   2       8.520  22.386   9.983  0.00  0.00    +0.137 C 
ENDROOT
BRANCH   1   4
ATOM      2  C   LEU A   1       9.092  22.563  12.358  0.00  0.00    +0.238 C 
ATOM      3  O   LEU A   1       8.907  23.782  12.371  0.00  0.00    -0.274 OA
ATOM      4  N   ARG A   2       8.932  21.811  11.271  0.00  0.00    -0.298 N 
ATOM      5  H   ARG A   2       9.104  20.787  11.335  0.00  0.00    +0.150 HD
BRANCH   2   6
ATOM      6  CA  LEU A   1       9.524  21.842  13.619  0.00  0.00    +0.145 C 
BRANCH   6   7
ATOM      7  N   LEU A   1       8.752  20.616  13.823  0.00  0.00    -0.238 NA
ATOM      8  H   LEU A   1       9.244  19.700  13.782  0.00  0.00    +0.142 HD
ENDBRANCH   6   7
BRANCH   6   9
ATOM      9  CB  LEU A   1      11.029  21.523  13.561  0.00  0.00    +0.026 C 
BRANCH   9  10
ATOM     10  CG  LEU A   1      12.035  22.663  13.405  0.00  0.00    +0.002 C 
ATOM     11  CD2 LEU A   1      11.820  23.746  14.449  0.00  0.00    +0.000 C 
ATOM     12  CD1 LEU A   1      13.485  22.126  13.451  0.00  0.00    +0.000 C 
ENDBRANCH   9  10
ENDBRANCH   6   9
ENDBRANCH   2   6
ENDBRANCH   1   4
BRANCH   1  13
ATOM     13  C   ARG A   2       7.132  23.046  10.052  0.00  0.00    +0.227 C 
ATOM     14  O   ARG A   2       6.924  24.152   9.528  0.00  0.00    -0.286 OA
ENDBRANCH   1  13
BRANCH   1  15
ATOM     15  CB  ARG A   2       8.526  21.318   8.876  0.00  0.00    +0.031 C 
BRANCH  15  16
ATOM     16  CG  ARG A   2       9.909  20.764   8.485  0.00  0.00    +0.045 C 
BRANCH  16  17
ATOM     17  CD  ARG A   2      10.683  21.739   7.633  0.00  0.00    +0.174 C 
BRANCH  17  18
ATOM     18  NE  ARG A   2      11.762  22.370   8.385  0.00  0.00    -0.265 N 
ATOM     19  HE  ARG A   2      11.506  22.983   9.185  0.00  0.00    +0.259 HD
ATOM     20  CZ  ARG A   2      13.054  22.209   8.109  0.00  0.00    +0.342 C 
ATOM     21  NH2 ARG A   2      13.975  22.817   8.848  0.00  0.00    -0.292 N 
ATOM     22 HH21 ARG A   2      13.687  23.421   9.645  0.00  0.00    +0.255 HD
ATOM     23 HH22 ARG A   2      14.984  22.689   8.630  0.00  0.00    +0.255 HD
ATOM     24  NH1 ARG A   2      13.429  21.451   7.086  0.00  0.00    -0.292 N 
ATOM     25 HH11 ARG A   2      14.439  21.327   6.873  0.00  0.00    +0.255 HD
ATOM     26 HH12 ARG A   2      12.712  20.981   6.497  0.00  0.00    +0.255 HD
ENDBRANCH  17  18
ENDBRANCH  16  17
ENDBRANCH  15  16
ENDBRANCH   1  15
TORSDOF 10
REMARK  Name = ../refined-set-2016/3ag9/3ag9_pocket.pdb
REMARK  313 active torsions:
REMARK  status: ('A' for Active; 'I' for Inactive)
REMARK    1  A    between atoms: _1  and  _3
REMARK    2  A    between atoms: _3  and  _4
REMARK    3  A    between atoms: _3  and  _6
REMARK    4  A    between atoms: _6  and  _7
REMARK    5  A    between atoms: _10  and  _12
REMARK    6  A    between atoms: _12  and  _13
REMARK    7  A    between atoms: _12  and  _15
REMARK    8  A    between atoms: _15  and  _16
REMARK    9  A    between atoms: _19  and  _21
REMARK   10  A    between atoms: _21  and  _22
REMARK   11  A    between atoms: _24  and  _26
REMARK   12  A    between atoms: _26  and  _27
REMARK   13  A    between atoms: _26  and  _29
REMARK   14  A    between atoms: _29  and  _30
REMARK   15  A    between atoms: _33  and  _35
REMARK   16  A    between atoms: _35  and  _36
REMARK   17  A    between atoms: _38  and  _40
REMARK   18  A    between atoms: _40  and  _41
REMARK   19  A    between atoms: _40  and  _43
REMARK   20  A    between atoms: _43  and  _44
REMARK   21  A    between atoms: _46  and  _48
REMARK   22  A    between atoms: _48  and  _49
REMARK   23  A    between atoms: _48  and  _51
REMARK   24  A    between atoms: _51  and  _52
REMARK   25  A    between atoms: _58  and  _60
REMARK   26  A    between atoms: _60  and  _61
REMARK   27  A    between atoms: _63  and  _65
REMARK   28  A    between atoms: _65  and  _66
REMARK   29  A    between atoms: _65  and  _68
REMARK   30  A    between atoms: _68  and  _69
REMARK   31  A    between atoms: _69  and  _70
REMARK   32  A    between atoms: _70  and  _71
REMARK   33  A    between atoms: _80  and  _82
REMARK   34  A    between atoms: _82  and  _83
REMARK   35  A    between atoms: _82  and  _85
REMARK   36  A    between atoms: _88  and  _90
REMARK   37  A    between atoms: _90  and  _91
REMARK   38  A    between atoms: _90  and  _93
REMARK   39  A    between atoms: _93  and  _94
REMARK   40  A    between atoms: _94  and  _95
REMARK   41  A    between atoms: _97  and  _99
REMARK   42  A    between atoms: _99  and  _100
REMARK   43  A    between atoms: _99  and  _102
REMARK   44  A    between atoms: _102  and  _103
REMARK   45  A    between atoms: _106  and  _108
REMARK   46  A    between atoms: _108  and  _109
REMARK   47  A    between atoms: _108  and  _111
REMARK   48  A    between atoms: _111  and  _112
REMARK   49  A    between atoms: _117  and  _118
REMARK   50  A    between atoms: _120  and  _122
REMARK   51  A    between atoms: _122  and  _123
REMARK   52  A    between atoms: _126  and  _128
REMARK   53  A    between atoms: _128  and  _129
REMARK   54  A    between atoms: _128  and  _131
REMARK   55  A    between atoms: _131  and  _132
REMARK   56  A    between atoms: _132  and  _133
REMARK   57  A    between atoms: _135  and  _137
REMARK   58  A    between atoms: _137  and  _138
REMARK   59  A    between atoms: _137  and  _140
REMARK   60  A    between atoms: _140  and  _141
REMARK   61  A    between atoms: _141  and  _142
REMARK   62  A    between atoms: _142  and  _143
REMARK   63  A    between atoms: _143  and  _144
REMARK   64  A    between atoms: _148  and  _150
REMARK   65  A    between atoms: _150  and  _151
REMARK   66  A    between atoms: _150  and  _153
REMARK   67  A    between atoms: _153  and  _154
REMARK   68  A    between atoms: _157  and  _159
REMARK   69  A    between atoms: _159  and  _160
REMARK   70  A    between atoms: _159  and  _162
REMARK   71  A    between atoms: _162  and  _163
REMARK   72  A    between atoms: _166  and  _168
REMARK   73  A    between atoms: _168  and  _169
REMARK   74  A    between atoms: _168  and  _171
REMARK   75  A    between atoms: _171  and  _172
REMARK   76  A    between atoms: _175  and  _177
REMARK   77  A    between atoms: _177  and  _178
REMARK   78  A    between atoms: _177  and  _180
REMARK   79  A    between atoms: _180  and  _181
REMARK   80  A    between atoms: _181  and  _182
REMARK   81  A    between atoms: _182  and  _183
REMARK   82  A    between atoms: _183  and  _184
REMARK   83  A    between atoms: _188  and  _190
REMARK   84  A    between atoms: _190  and  _191
REMARK   85  A    between atoms: _190  and  _193
REMARK   86  A    between atoms: _196  and  _198
REMARK   87  A    between atoms: _198  and  _199
REMARK   88  A    between atoms: _198  and  _201
REMARK   89  A    between atoms: _201  and  _202
REMARK   90  A    between atoms: _205  and  _207
REMARK   91  A    between atoms: _207  and  _208
REMARK   92  A    between atoms: _207  and  _210
REMARK   93  A    between atoms: _210  and  _211
REMARK   94  A    between atoms: _211  and  _212
REMARK   95  A    between atoms: _217  and  _219
REMARK   96  A    between atoms: _219  and  _220
REMARK   97  A    between atoms: _219  and  _222
REMARK   98  A    between atoms: _222  and  _223
REMARK   99  A    between atoms: _228  and  _230
REMARK  100  A    between atoms: _230  and  _231
REMARK  101  A    between atoms: _230  and  _233
REMARK  102  A    between atoms: _233  and  _234
REMARK  103  A    between atoms: _237  and  _239
REMARK  104  A    between atoms: _239  and  _240
REMARK  105  A    between atoms: _239  and  _242
REMARK  106  A    between atoms: _242  and  _243
REMARK  107  A    between atoms: _243  and  _244
REMARK  108  A    between atoms: _247  and  _249
REMARK  109  A    between atoms: _249  and  _250
REMARK  110  A    between atoms: _249  and  _252
REMARK  111  A    between atoms: _255  and  _257
REMARK  112  A    between atoms: _257  and  _258
REMARK  113  A    between atoms: _257  and  _260
REMARK  114  A    between atoms: _260  and  _261
REMARK  115  A    between atoms: _261  and  _262
REMARK  116  A    between atoms: _262  and  _263
REMARK  117  A    between atoms: _263  and  _264
REMARK  118  A    between atoms: _268  and  _270
REMARK  119  A    between atoms: _270  and  _271
REMARK  120  A    between atoms: _270  and  _273
REMARK  121  A    between atoms: _273  and  _274
REMARK  122  A    between atoms: _277  and  _279
REMARK  123  A    between atoms: _279  and  _280
REMARK  124  A    between atoms: _279  and  _282
REMARK  125  A    between atoms: _282  and  _283
REMARK  126  A    between atoms: _283  and  _284
REMARK  127  A    between atoms: _286  and  _288
REMARK  128  A    between atoms: _288  and  _289
REMARK  129  A    between atoms: _288  and  _291
REMARK  130  A    between atoms: _294  and  _296
REMARK  131  A    between atoms: _296  and  _297
REMARK  132  A    between atoms: _296  and  _299
REMARK  133  A    between atoms: _299  and  _300
REMARK  134  A    between atoms: _300  and  _301
REMARK  135  A    between atoms: _303  and  _305
REMARK  136  A    between atoms: _305  and  _306
REMARK  137  A    between atoms: _305  and  _308
REMARK  138  A    between atoms: _308  and  _309
REMARK  139  A    between atoms: _309  and  _310
REMARK  140  A    between atoms: _313  and  _315
REMARK  141  A    between atoms: _315  and  _316
REMARK  142  A    between atoms: _315  and  _318
REMARK  143  A    between atoms: _318  and  _319
REMARK  144  A    between atoms: _324  and  _325
REMARK  145  A    between atoms: _327  and  _329
REMARK  146  A    between atoms: _329  and  _330
REMARK  147  A    between atoms: _329  and  _332
REMARK  148  A    between atoms: _336  and  _337
REMARK  149  A    between atoms: _342  and  _344
REMARK  150  A    between atoms: _344  and  _345
REMARK  151  A    between atoms: _347  and  _349
REMARK  152  A    between atoms: _349  and  _350
REMARK  153  A    between atoms: _352  and  _354
REMARK  154  A    between atoms: _354  and  _355
REMARK  155  A    between atoms: _354  and  _357
REMARK  156  A    between atoms: _357  and  _358
REMARK  157  A    between atoms: _358  and  _359
REMARK  158  A    between atoms: _362  and  _364
REMARK  159  A    between atoms: _364  and  _365
REMARK  160  A    between atoms: _364  and  _367
REMARK  161  A    between atoms: _367  and  _368
REMARK  162  A    between atoms: _368  and  _369
REMARK  163  A    between atoms: _371  and  _373
REMARK  164  A    between atoms: _373  and  _374
REMARK  165  A    between atoms: _373  and  _376
REMARK  166  A    between atoms: _376  and  _377
REMARK  167  A    between atoms: _383  and  _385
REMARK  168  A    between atoms: _385  and  _386
REMARK  169  A    between atoms: _385  and  _388
REMARK  170  A    between atoms: _388  and  _389
REMARK  171  A    between atoms: _391  and  _393
REMARK  172  A    between atoms: _393  and  _394
REMARK  173  A    between atoms: _393  and  _396
REMARK  174  A    between atoms: _396  and  _397
REMARK  175  A    between atoms: _400  and  _402
REMARK  176  A    between atoms: _402  and  _403
REMARK  177  A    between atoms: _402  and  _405
REMARK  178  A    between atoms: _405  and  _406
REMARK  179  A    between atoms: _406  and  _407
REMARK  180  A    between atoms: _407  and  _408
REMARK  181  A    between atoms: _417  and  _419
REMARK  182  A    between atoms: _419  and  _420
REMARK  183  A    between atoms: _419  and  _422
REMARK  184  A    between atoms: _422  and  _423
REMARK  185  A    between atoms: _428  and  _429
REMARK  186  A    between atoms: _431  and  _433
REMARK  187  A    between atoms: _433  and  _434
REMARK  188  A    between atoms: _433  and  _436
REMARK  189  A    between atoms: _436  and  _437
REMARK  190  A    between atoms: _437  and  _438
REMARK  191  A    between atoms: _438  and  _439
REMARK  192  A    between atoms: _448  and  _450
REMARK  193  A    between atoms: _450  and  _451
REMARK  194  A    between atoms: _450  and  _453
REMARK  195  A    between atoms: _453  and  _454
REMARK  196  A    between atoms: _457  and  _459
REMARK  197  A    between atoms: _459  and  _460
REMARK  198  A    between atoms: _459  and  _462
REMARK  199  A    between atoms: _462  and  _463
REMARK  200  A    between atoms: _466  and  _468
REMARK  201  A    between atoms: _468  and  _469
REMARK  202  A    between atoms: _468  and  _471
REMARK  203  A    between atoms: _471  and  _472
REMARK  204  A    between atoms: _472  and  _473
REMARK  205  A    between atoms: _473  and  _474
REMARK  206  A    between atoms: _474  and  _475
REMARK  207  A    between atoms: _480  and  _481
REMARK  208  A    between atoms: _486  and  _488
REMARK  209  A    between atoms: _488  and  _489
REMARK  210  A    between atoms: _488  and  _491
REMARK  211  A    between atoms: _491  and  _492
REMARK  212  A    between atoms: _492  and  _493
REMARK  213  A    between atoms: _496  and  _498
REMARK  214  A    between atoms: _498  and  _499
REMARK  215  A    between atoms: _498  and  _501
REMARK  216  A    between atoms: _501  and  _502
REMARK  217  A    between atoms: _507  and  _509
REMARK  218  A    between atoms: _509  and  _510
REMARK  219  A    between atoms: _509  and  _512
REMARK  220  A    between atoms: _512  and  _513
REMARK  221  A    between atoms: _516  and  _518
REMARK  222  A    between atoms: _518  and  _519
REMARK  223  A    between atoms: _518  and  _521
REMARK  224  A    between atoms: _521  and  _522
REMARK  225  A    between atoms: _525  and  _527
REMARK  226  A    between atoms: _527  and  _528
REMARK  227  A    between atoms: _527  and  _530
REMARK  228  A    between atoms: _530  and  _531
REMARK  229  A    between atoms: _534  and  _536
REMARK  230  A    between atoms: _536  and  _537
REMARK  231  A    between atoms: _536  and  _539
REMARK  232  A    between atoms: _539  and  _540
REMARK  233  A    between atoms: _543  and  _545
REMARK  234  A    between atoms: _545  and  _546
REMARK  235  A    between atoms: _545  and  _548
REMARK  236  A    between atoms: _548  and  _549
REMARK  237  A    between atoms: _549  and  _550
REMARK  238  A    between atoms: _555  and  _557
REMARK  239  A    between atoms: _557  and  _558
REMARK  240  A    between atoms: _557  and  _560
REMARK  241  A    between atoms: _563  and  _565
REMARK  242  A    between atoms: _565  and  _566
REMARK  243  A    between atoms: _565  and  _568
REMARK  244  A    between atoms: _568  and  _569
REMARK  245  A    between atoms: _572  and  _574
REMARK  246  A    between atoms: _574  and  _575
REMARK  247  A    between atoms: _574  and  _577
REMARK  248  A    between atoms: _577  and  _578
REMARK  249  A    between atoms: _581  and  _583
REMARK  250  A    between atoms: _583  and  _584
REMARK  251  A    between atoms: _583  and  _586
REMARK  252  A    between atoms: _586  and  _587
REMARK  253  A    between atoms: _593  and  _595
REMARK  254  A    between atoms: _595  and  _596
REMARK  255  A    between atoms: _598  and  _600
REMARK  256  A    between atoms: _600  and  _601
REMARK  257  A    between atoms: _600  and  _603
REMARK  258  A    between atoms: _603  and  _604
REMARK  259  A    between atoms: _610  and  _612
REMARK  260  A    between atoms: _612  and  _613
REMARK  261  A    between atoms: _612  and  _615
REMARK  262  A    between atoms: _617  and  _619
REMARK  263  A    between atoms: _619  and  _620
REMARK  264  A    between atoms: _622  and  _624
REMARK  265  A    between atoms: _624  and  _625
REMARK  266  A    between atoms: _624  and  _627
REMARK  267  A    between atoms: _627  and  _628
REMARK  268  A    between atoms: _632  and  _633
REMARK  269  A    between atoms: _638  and  _640
REMARK  270  A    between atoms: _640  and  _641
REMARK  271  A    between atoms: _640  and  _643
REMARK  272  A    between atoms: _643  and  _644
REMARK  273  A    between atoms: _644  and  _645
REMARK  274  A    between atoms: _648  and  _650
REMARK  275  A    between atoms: _650  and  _651
REMARK  276  A    between atoms: _650  and  _653
REMARK  277  A    between atoms: _653  and  _654
REMARK  278  A    between atoms: _659  and  _660
REMARK  279  A    between atoms: _662  and  _664
REMARK  280  A    between atoms: _664  and  _665
REMARK  281  A    between atoms: _664  and  _667
REMARK  282  A    between atoms: _670  and  _672
REMARK  283  A    between atoms: _672  and  _673
REMARK  284  A    between atoms: _672  and  _675
REMARK  285  A    between atoms: _675  and  _676
REMARK  286  A    between atoms: _679  and  _681
REMARK  287  A    between atoms: _681  and  _682
REMARK  288  A    between atoms: _681  and  _684
REMARK  289  A    between atoms: _684  and  _685
REMARK  290  A    between atoms: _685  and  _686
REMARK  291  A    between atoms: _689  and  _691
REMARK  292  A    between atoms: _691  and  _692
REMARK  293  A    between atoms: _694  and  _696
REMARK  294  A    between atoms: _696  and  _697
REMARK  295  A    between atoms: _696  and  _699
REMARK  296  A    between atoms: _699  and  _700
REMARK  297  A    between atoms: _705  and  _706
REMARK  298  A    between atoms: _709  and  _710
REMARK  299  A    between atoms: _716  and  _717
REMARK  300  A    between atoms: _722  and  _724
REMARK  301  A    between atoms: _724  and  _725
REMARK  302  A    between atoms: _724  and  _727
REMARK  303  A    between atoms: _727  and  _728
REMARK  304  A    between atoms: _734  and  _736
REMARK  305  A    between atoms: _736  and  _737
REMARK  306  A    between atoms: _736  and  _739
REMARK  307  A    between atoms: _739  and  _740
REMARK  308  A    between atoms: _746  and  _748
REMARK  309  A    between atoms: _748  and  _749
REMARK  310  A    between atoms: _752  and  _754
REMARK  311  A    between atoms: _754  and  _755
REMARK  312  A    between atoms: _754  and  _757
REMARK  313  A    between atoms: _757  and  _758
REMARK                            x       y       z     vdW  Elec       q    Type
REMARK                         _______ _______ _______ _____ _____    ______ ____
ROOT
ATOM      1  C   LYS A   5      17.656  15.208  13.853  0.00  0.00    +0.244 C 
ATOM      2  O   LYS A   5      17.296  14.206  14.473  0.00  0.00    -0.273 OA
ATOM      3  N   PRO A   6      16.829  16.238  13.602  0.00  0.00    -0.272 N 
ATOM      4  CA  PRO A   6      15.438  16.183  14.094  0.00  0.00    +0.152 C 
ATOM      5  CB  PRO A   6      14.808  17.476  13.551  0.00  0.00    +0.031 C 
ATOM      6  CG  PRO A   6      15.973  18.379  13.248  0.00  0.00    +0.024 C 
ATOM      7  CD  PRO A   6      17.110  17.480  12.861  0.00  0.00    +0.094 C 
ENDROOT
BRANCH   4   8
ATOM      8  C   PRO A   6      14.628  14.973  13.607  0.00  0.00    +0.241 C 
ATOM      9  O   PRO A   6      13.699  14.556  14.290  0.00  0.00    -0.273 OA
ATOM     10  N   GLU A   7      14.973  14.415  12.447  0.00  0.00    -0.297 N 
ATOM     11  H   GLU A   7      15.760  14.822  11.902  0.00  0.00    +0.150 HD
BRANCH  10  12
ATOM     12  CA  GLU A   7      14.266  13.235  11.918  0.00  0.00    +0.149 C 
BRANCH  12  13
ATOM     13  C   GLU A   7      14.356  12.033  12.849  0.00  0.00    +0.241 C 
ATOM     14  N   ASN A   8      15.430  11.959  13.621  0.00  0.00    -0.297 N 
ATOM     15  H   ASN A   8      16.106  12.750  13.627  0.00  0.00    +0.150 HD
ATOM     16  O   GLU A   7      13.466  11.176  12.861  0.00  0.00    -0.273 OA
BRANCH  14  17
ATOM     17  CA  ASN A   8      15.689  10.795  14.464  0.00  0.00    +0.158 C 
BRANCH  17  18
ATOM     18  C   ASN A   8      15.227  10.955  15.920  0.00  0.00    +0.241 C 
ATOM     19  O   ASN A   8      15.446  10.076  16.744  0.00  0.00    -0.273 OA
ATOM     20  N   LEU A   9      14.575  12.073  16.215  0.00  0.00    -0.297 N 
ATOM     21  H   LEU A   9      14.392  12.761  15.457  0.00  0.00    +0.150 HD
BRANCH  20  22
ATOM     22  CA  LEU A   9      14.106  12.372  17.561  0.00  0.00    +0.149 C 
BRANCH  22  23
ATOM     23  C   LEU A   9      12.589  12.256  17.597  0.00  0.00    +0.241 C 
ATOM     24  N   LEU A  10      12.092  11.188  18.199  0.00  0.00    -0.297 N 
ATOM     25  H   LEU A  10      12.730  10.467  18.592  0.00  0.00    +0.150 HD
ATOM     26  O   LEU A   9      11.879  13.097  17.058  0.00  0.00    -0.273 OA
BRANCH  24  27
ATOM     27  CA  LEU A  10      10.650  11.023  18.310  0.00  0.00    +0.149 C 
BRANCH  27  28
ATOM     28  C   LEU A  10      10.165  11.720  19.560  0.00  0.00    +0.241 C 
ATOM     29  O   LEU A  10      10.838  11.704  20.593  0.00  0.00    -0.273 OA
ATOM     30  N   ILE A  11       8.995  12.329  19.465  0.00  0.00    -0.297 N 
ATOM     31  H   ILE A  11       8.495  12.339  18.553  0.00  0.00    +0.150 HD
BRANCH  30  32
ATOM     32  CA  ILE A  11       8.399  12.983  20.615  0.00  0.00    +0.149 C 
BRANCH  32  33
ATOM     33  C   ILE A  11       7.333  12.039  21.150  0.00  0.00    +0.241 C 
ATOM     34  N   ASP A  12       7.502  11.641  22.407  0.00  0.00    -0.298 N 
ATOM     35  H   ASP A  12       8.282  12.043  22.966  0.00  0.00    +0.150 HD
ATOM     36  O   ILE A  11       6.403  11.658  20.421  0.00  0.00    -0.273 OA
BRANCH  34  37
ATOM     37  CA  ASP A  12       6.628  10.662  23.018  0.00  0.00    +0.148 C 
BRANCH  37  38
ATOM     38  C   ASP A  12       5.374  11.283  23.616  0.00  0.00    +0.227 C 
ATOM     39  O   ASP A  12       5.167  12.497  23.530  0.00  0.00    -0.286 OA
ENDBRANCH  37  38
BRANCH  37  40
ATOM     40  CB  ASP A  12       7.369   9.770  24.021  0.00  0.00    +0.142 C 
BRANCH  40  41
ATOM     41  CG  ASP A  12       7.836  10.500  25.271  0.00  0.00    +0.367 C 
ATOM     42  OD2 ASP A  12       8.746   9.945  25.915  0.00  0.00    -0.246 OA
ATOM     43  OD1 ASP A  12       7.315  11.581  25.629  0.00  0.00    -0.246 OA
ENDBRANCH  40  41
ENDBRANCH  37  40
ENDBRANCH  34  37
ENDBRANCH  32  33
BRANCH  32  44
ATOM     44  CB  ILE A  11       7.831  14.357  20.247  0.00  0.00    +0.027 C 
ATOM     45  CG2 ILE A  11       7.363  15.093  21.496  0.00  0.00    +0.002 C 
BRANCH  44  46
ATOM     46  CG1 ILE A  11       8.917  15.192  19.559  0.00  0.00    +0.002 C 
ATOM     47  CD1 ILE A  11       8.392  16.421  18.851  0.00  0.00    +0.000 C 
ENDBRANCH  44  46
ENDBRANCH  32  44
ENDBRANCH  30  32
ENDBRANCH  27  28
BRANCH  27  48
ATOM     48  CB  LEU A  10      10.276   9.554  18.359  0.00  0.00    +0.029 C 
BRANCH  48  49
ATOM     49  CG  LEU A  10      10.758   8.744  17.160  0.00  0.00    +0.002 C 
ATOM     50  CD2 LEU A  10      10.886   7.291  17.570  0.00  0.00    +0.000 C 
ATOM     51  CD1 LEU A  10       9.790   8.913  15.996  0.00  0.00    +0.000 C 
ENDBRANCH  48  49
ENDBRANCH  27  48
ENDBRANCH  24  27
ENDBRANCH  22  23
BRANCH  22  52
ATOM     52  CB  LEU A   9      14.577  13.780  17.987  0.00  0.00    +0.029 C 
BRANCH  52  53
ATOM     53  CG  LEU A   9      16.086  14.003  17.756  0.00  0.00    +0.002 C 
ATOM     54  CD2 LEU A   9      16.919  12.952  18.460  0.00  0.00    +0.000 C 
ATOM     55  CD1 LEU A   9      16.521  15.396  18.201  0.00  0.00    +0.000 C 
ENDBRANCH  52  53
ENDBRANCH  22  52
ENDBRANCH  20  22
ENDBRANCH  17  18
BRANCH  17  56
ATOM     56  CB  ASN A   8      17.178  10.429  14.395  0.00  0.00    +0.114 C 
BRANCH  56  57
ATOM     57  CG  ASN A   8      17.561   9.764  13.073  0.00  0.00    +0.222 C 
ATOM     58  ND2 ASN A   8      18.854   9.621  12.840  0.00  0.00    -0.329 N 
ATOM     59 HD21 ASN A   8      19.549   9.977  13.527  0.00  0.00    +0.145 HD
ATOM     60 HD22 ASN A   8      19.177   9.153  11.969  0.00  0.00    +0.145 HD
ATOM     61  OD1 ASN A   8      16.700   9.359  12.288  0.00  0.00    -0.275 OA
ENDBRANCH  56  57
ENDBRANCH  17  56
ENDBRANCH  14  17
ENDBRANCH  12  13
BRANCH  12  62
ATOM     62  CB  GLU A   7      14.819  12.826  10.549  0.00  0.00    +0.041 C 
BRANCH  62  63
ATOM     63  CG  GLU A   7      14.551  13.824   9.431  0.00  0.00    +0.116 C 
BRANCH  63  64
ATOM     64  CD  GLU A   7      15.632  14.890   9.288  0.00  0.00    +0.365 C 
ATOM     65  OE2 GLU A   7      16.119  15.429  10.314  0.00  0.00    -0.246 OA
ATOM     66  OE1 GLU A   7      15.980  15.193   8.125  0.00  0.00    -0.246 OA
ENDBRANCH  63  64
ENDBRANCH  62  63
ENDBRANCH  12  62
ENDBRANCH  10  12
ENDBRANCH   4   8
BRANCH   1  67
ATOM     67  CA  LYS A   5      19.087  15.309  13.366  0.00  0.00    +0.149 C 
BRANCH  67  69
ATOM     68  C   LEU A   4      21.176  14.297  14.218  0.00  0.00    +0.241 C 
ATOM     69  N   LYS A   5      19.854  14.456  14.272  0.00  0.00    -0.297 N 
ATOM     70  H   LYS A   5      19.333  13.938  15.008  0.00  0.00    +0.150 HD
ATOM     71  O   LEU A   4      21.900  14.772  13.339  0.00  0.00    -0.273 OA
BRANCH  68  72
ATOM     72  CA  LEU A   4      21.762  13.429  15.311  0.00  0.00    +0.149 C 
BRANCH  72  74
ATOM     73  C   ASP A   3      22.190  11.500  13.882  0.00  0.00    +0.241 C 
ATOM     74  N   LEU A   4      22.641  12.417  14.735  0.00  0.00    -0.297 N 
ATOM     75  H   LEU A   4      23.647  12.412  14.998  0.00  0.00    +0.150 HD
ATOM     76  O   ASP A   3      21.000  11.387  13.584  0.00  0.00    -0.273 OA
BRANCH  73  77
ATOM     77  CA  ASP A   3      23.246  10.576  13.270  0.00  0.00    +0.160 C 
BRANCH  77  79
ATOM     78  C   ARG A   2      25.612  10.263  13.699  0.00  0.00    +0.241 C 
ATOM     79  N   ASP A   3      24.374  10.284  14.176  0.00  0.00    -0.297 N 
ATOM     80  H   ASP A   3      24.199  10.096  15.184  0.00  0.00    +0.150 HD
ATOM     81  O   ARG A   2      25.851  10.449  12.513  0.00  0.00    -0.273 OA
BRANCH  78  82
ATOM     82  CA  ARG A   2      26.766   9.940  14.648  0.00  0.00    +0.149 C 
BRANCH  82  84
ATOM     83  C   TYR A   1      25.830   8.437  16.373  0.00  0.00    +0.239 C 
ATOM     84  N   ARG A   2      26.407   9.582  16.023  0.00  0.00    -0.297 N 
ATOM     85  H   ARG A   2      26.618  10.269  16.775  0.00  0.00    +0.150 HD
ATOM     86  O   TYR A   1      25.272   7.668  15.578  0.00  0.00    -0.274 OA
BRANCH  83  87
ATOM     87  CA  TYR A   1      25.813   8.152  17.878  0.00  0.00    +0.149 C 
BRANCH  87  88
ATOM     88  N   TYR A   1      27.136   8.326  18.481  0.00  0.00    -0.238 NA
ATOM     89  H   TYR A   1      27.391   9.239  18.909  0.00  0.00    +0.142 HD
ENDBRANCH  87  88
BRANCH  87  90
ATOM     90  CB  TYR A   1      24.747   9.006  18.592  0.00  0.00    +0.053 C 
BRANCH  90  91
ATOM     91  CG  TYR A   1      23.395   8.926  17.911  0.00  0.00    -0.020 A 
ATOM     92  CD2 TYR A   1      22.662   7.744  17.910  0.00  0.00    -0.001 A 
ATOM     93  CE2 TYR A   1      21.443   7.659  17.263  0.00  0.00    +0.036 A 
ATOM     94  CZ  TYR A   1      20.936   8.782  16.618  0.00  0.00    +0.134 A 
ATOM     95  CE1 TYR A   1      21.638   9.971  16.626  0.00  0.00    +0.036 A 
ATOM     96  CD1 TYR A   1      22.860  10.039  17.245  0.00  0.00    -0.001 A 
BRANCH  94  97
ATOM     97  OH  TYR A   1      19.716   8.721  15.984  0.00  0.00    -0.506 OA
ATOM     98  HH  TYR A   1      19.347   7.806  16.069  0.00  0.00    +0.292 HD
ENDBRANCH  94  97
ENDBRANCH  90  91
ENDBRANCH  87  90
ENDBRANCH  83  87
ENDBRANCH  82  84
BRANCH  82  99
ATOM     99  CB  ARG A   2      27.633   8.837  14.005  0.00  0.00    +0.033 C 
BRANCH  99 100
ATOM    100  CG  ARG A   2      29.072   8.795  14.469  0.00  0.00    +0.045 C 
BRANCH 100 101
ATOM    101  CD  ARG A   2      29.940   8.040  13.465  0.00  0.00    +0.174 C 
BRANCH 101 102
ATOM    102  NE  ARG A   2      29.532   6.640  13.296  0.00  0.00    -0.265 N 
ATOM    103  HE  ARG A   2      28.631   6.333  13.715  0.00  0.00    +0.259 HD
ATOM    104  CZ  ARG A   2      30.262   5.743  12.631  0.00  0.00    +0.342 C 
ATOM    105  NH2 ARG A   2      29.851   4.485  12.508  0.00  0.00    -0.292 N 
ATOM    106 HH21 ARG A   2      28.949   4.189  12.933  0.00  0.00    +0.255 HD
ATOM    107 HH22 ARG A   2      30.431   3.797  11.987  0.00  0.00    +0.255 HD
ATOM    108  NH1 ARG A   2      31.409   6.120  12.083  0.00  0.00    -0.292 N 
ATOM    109 HH11 ARG A   2      31.730   7.105  12.174  0.00  0.00    +0.255 HD
ATOM    110 HH12 ARG A   2      31.988   5.431  11.562  0.00  0.00    +0.255 HD
ENDBRANCH 101 102
ENDBRANCH 100 101
ENDBRANCH  99 100
ENDBRANCH  82  99
ENDBRANCH  78  82
ENDBRANCH  77  79
BRANCH  77 111
ATOM    111  CB  ASP A   3      22.621   9.281  12.718  0.00  0.00    +0.143 C 
BRANCH 111 112
ATOM    112  CG  ASP A   3      21.845   9.508  11.401  0.00  0.00    +0.367 C 
ATOM    113  OD2 ASP A   3      20.893   8.744  11.128  0.00  0.00    -0.246 OA
ATOM    114  OD1 ASP A   3      22.185  10.445  10.646  0.00  0.00    -0.246 OA
ENDBRANCH 111 112
ENDBRANCH  77 111
ENDBRANCH  73  77
ENDBRANCH  72  74
BRANCH  72 115
ATOM    115  CB  LEU A   4      22.494  14.295  16.335  0.00  0.00    +0.029 C 
BRANCH 115 116
ATOM    116  CG  LEU A   4      21.581  15.192  17.172  0.00  0.00    +0.002 C 
ATOM    117  CD2 LEU A   4      20.678  14.334  18.046  0.00  0.00    +0.000 C 
ATOM    118  CD1 LEU A   4      22.404  16.156  18.016  0.00  0.00    +0.000 C 
ENDBRANCH 115 116
ENDBRANCH  72 115
ENDBRANCH  68  72
ENDBRANCH  67  69
BRANCH  67 119
ATOM    119  CB  LYS A   5      19.226  14.866  11.885  0.00  0.00    +0.029 C 
BRANCH 119 120
ATOM    120  CG  LYS A   5      18.956  13.392  11.626  0.00  0.00    +0.000 C 
BRANCH 120 121
ATOM    121  CD  LYS A   5      19.218  12.970  10.162  0.00  0.00    -0.024 C 
BRANCH 121 122
ATOM    122  CE  LYS A   5      18.501  11.632   9.871  0.00  0.00    -0.086 C 
BRANCH 122 123
ATOM    123  NZ  LYS A   5      18.652  11.137   8.461  0.00  0.00    +0.380 N 
ATOM    124  HZ1 LYS A   5      18.141  10.237   8.354  0.00  0.00    -0.089 HD
ATOM    125  HZ2 LYS A   5      19.660  10.992   8.252  0.00  0.00    -0.089 HD
ATOM    126  HZ3 LYS A   5      18.258  11.840   7.804  0.00  0.00    -0.089 HD
ENDBRANCH 122 123
ENDBRANCH 121 122
ENDBRANCH 120 121
ENDBRANCH 119 120
ENDBRANCH  67 119
ENDBRANCH   1  67
TORSDOF 52
REMARK  Name = ../refined-set-2016/3ag9/3ag9_pocket.pdb
REMARK  313 active torsions:
REMARK  status: ('A' for Active; 'I' for Inactive)
REMARK    1  A    between atoms: _1  and  _3
REMARK    2  A    between atoms: _3  and  _4
REMARK    3  A    between atoms: _3  and  _6
REMARK    4  A    between atoms: _6  and  _7
REMARK    5  A    between atoms: _10  and  _12
REMARK    6  A    between atoms: _12  and  _13
REMARK    7  A    between atoms: _12  and  _15
REMARK    8  A    between atoms: _15  and  _16
REMARK    9  A    between atoms: _19  and  _21
REMARK   10  A    between atoms: _21  and  _22
REMARK   11  A    between atoms: _24  and  _26
REMARK   12  A    between atoms: _26  and  _27
REMARK   13  A    between atoms: _26  and  _29
REMARK   14  A    between atoms: _29  and  _30
REMARK   15  A    between atoms: _33  and  _35
REMARK   16  A    between atoms: _35  and  _36
REMARK   17  A    between atoms: _38  and  _40
REMARK   18  A    between atoms: _40  and  _41
REMARK   19  A    between atoms: _40  and  _43
REMARK   20  A    between atoms: _43  and  _44
REMARK   21  A    between atoms: _46  and  _48
REMARK   22  A    between atoms: _48  and  _49
REMARK   23  A    between atoms: _48  and  _51
REMARK   24  A    between atoms: _51  and  _52
REMARK   25  A    between atoms: _58  and  _60
REMARK   26  A    between atoms: _60  and  _61
REMARK   27  A    between atoms: _63  and  _65
REMARK   28  A    between atoms: _65  and  _66
REMARK   29  A    between atoms: _65  and  _68
REMARK   30  A    between atoms: _68  and  _69
REMARK   31  A    between atoms: _69  and  _70
REMARK   32  A    between atoms: _70  and  _71
REMARK   33  A    between atoms: _80  and  _82
REMARK   34  A    between atoms: _82  and  _83
REMARK   35  A    between atoms: _82  and  _85
REMARK   36  A    between atoms: _88  and  _90
REMARK   37  A    between atoms: _90  and  _91
REMARK   38  A    between atoms: _90  and  _93
REMARK   39  A    between atoms: _93  and  _94
REMARK   40  A    between atoms: _94  and  _95
REMARK   41  A    between atoms: _97  and  _99
REMARK   42  A    between atoms: _99  and  _100
REMARK   43  A    between atoms: _99  and  _102
REMARK   44  A    between atoms: _102  and  _103
REMARK   45  A    between atoms: _106  and  _108
REMARK   46  A    between atoms: _108  and  _109
REMARK   47  A    between atoms: _108  and  _111
REMARK   48  A    between atoms: _111  and  _112
REMARK   49  A    between atoms: _117  and  _118
REMARK   50  A    between atoms: _120  and  _122
REMARK   51  A    between atoms: _122  and  _123
REMARK   52  A    between atoms: _126  and  _128
REMARK   53  A    between atoms: _128  and  _129
REMARK   54  A    between atoms: _128  and  _131
REMARK   55  A    between atoms: _131  and  _132
REMARK   56  A    between atoms: _132  and  _133
REMARK   57  A    between atoms: _135  and  _137
REMARK   58  A    between atoms: _137  and  _138
REMARK   59  A    between atoms: _137  and  _140
REMARK   60  A    between atoms: _140  and  _141
REMARK   61  A    between atoms: _141  and  _142
REMARK   62  A    between atoms: _142  and  _143
REMARK   63  A    between atoms: _143  and  _144
REMARK   64  A    between atoms: _148  and  _150
REMARK   65  A    between atoms: _150  and  _151
REMARK   66  A    between atoms: _150  and  _153
REMARK   67  A    between atoms: _153  and  _154
REMARK   68  A    between atoms: _157  and  _159
REMARK   69  A    between atoms: _159  and  _160
REMARK   70  A    between atoms: _159  and  _162
REMARK   71  A    between atoms: _162  and  _163
REMARK   72  A    between atoms: _166  and  _168
REMARK   73  A    between atoms: _168  and  _169
REMARK   74  A    between atoms: _168  and  _171
REMARK   75  A    between atoms: _171  and  _172
REMARK   76  A    between atoms: _175  and  _177
REMARK   77  A    between atoms: _177  and  _178
REMARK   78  A    between atoms: _177  and  _180
REMARK   79  A    between atoms: _180  and  _181
REMARK   80  A    between atoms: _181  and  _182
REMARK   81  A    between atoms: _182  and  _183
REMARK   82  A    between atoms: _183  and  _184
REMARK   83  A    between atoms: _188  and  _190
REMARK   84  A    between atoms: _190  and  _191
REMARK   85  A    between atoms: _190  and  _193
REMARK   86  A    between atoms: _196  and  _198
REMARK   87  A    between atoms: _198  and  _199
REMARK   88  A    between atoms: _198  and  _201
REMARK   89  A    between atoms: _201  and  _202
REMARK   90  A    between atoms: _205  and  _207
REMARK   91  A    between atoms: _207  and  _208
REMARK   92  A    between atoms: _207  and  _210
REMARK   93  A    between atoms: _210  and  _211
REMARK   94  A    between atoms: _211  and  _212
REMARK   95  A    between atoms: _217  and  _219
REMARK   96  A    between atoms: _219  and  _220
REMARK   97  A    between atoms: _219  and  _222
REMARK   98  A    between atoms: _222  and  _223
REMARK   99  A    between atoms: _228  and  _230
REMARK  100  A    between atoms: _230  and  _231
REMARK  101  A    between atoms: _230  and  _233
REMARK  102  A    between atoms: _233  and  _234
REMARK  103  A    between atoms: _237  and  _239
REMARK  104  A    between atoms: _239  and  _240
REMARK  105  A    between atoms: _239  and  _242
REMARK  106  A    between atoms: _242  and  _243
REMARK  107  A    between atoms: _243  and  _244
REMARK  108  A    between atoms: _247  and  _249
REMARK  109  A    between atoms: _249  and  _250
REMARK  110  A    between atoms: _249  and  _252
REMARK  111  A    between atoms: _255  and  _257
REMARK  112  A    between atoms: _257  and  _258
REMARK  113  A    between atoms: _257  and  _260
REMARK  114  A    between atoms: _260  and  _261
REMARK  115  A    between atoms: _261  and  _262
REMARK  116  A    between atoms: _262  and  _263
REMARK  117  A    between atoms: _263  and  _264
REMARK  118  A    between atoms: _268  and  _270
REMARK  119  A    between atoms: _270  and  _271
REMARK  120  A    between atoms: _270  and  _273
REMARK  121  A    between atoms: _273  and  _274
REMARK  122  A    between atoms: _277  and  _279
REMARK  123  A    between atoms: _279  and  _280
REMARK  124  A    between atoms: _279  and  _282
REMARK  125  A    between atoms: _282  and  _283
REMARK  126  A    between atoms: _283  and  _284
REMARK  127  A    between atoms: _286  and  _288
REMARK  128  A    between atoms: _288  and  _289
REMARK  129  A    between atoms: _288  and  _291
REMARK  130  A    between atoms: _294  and  _296
REMARK  131  A    between atoms: _296  and  _297
REMARK  132  A    between atoms: _296  and  _299
REMARK  133  A    between atoms: _299  and  _300
REMARK  134  A    between atoms: _300  and  _301
REMARK  135  A    between atoms: _303  and  _305
REMARK  136  A    between atoms: _305  and  _306
REMARK  137  A    between atoms: _305  and  _308
REMARK  138  A    between atoms: _308  and  _309
REMARK  139  A    between atoms: _309  and  _310
REMARK  140  A    between atoms: _313  and  _315
REMARK  141  A    between atoms: _315  and  _316
REMARK  142  A    between atoms: _315  and  _318
REMARK  143  A    between atoms: _318  and  _319
REMARK  144  A    between atoms: _324  and  _325
REMARK  145  A    between atoms: _327  and  _329
REMARK  146  A    between atoms: _329  and  _330
REMARK  147  A    between atoms: _329  and  _332
REMARK  148  A    between atoms: _336  and  _337
REMARK  149  A    between atoms: _342  and  _344
REMARK  150  A    between atoms: _344  and  _345
REMARK  151  A    between atoms: _347  and  _349
REMARK  152  A    between atoms: _349  and  _350
REMARK  153  A    between atoms: _352  and  _354
REMARK  154  A    between atoms: _354  and  _355
REMARK  155  A    between atoms: _354  and  _357
REMARK  156  A    between atoms: _357  and  _358
REMARK  157  A    between atoms: _358  and  _359
REMARK  158  A    between atoms: _362  and  _364
REMARK  159  A    between atoms: _364  and  _365
REMARK  160  A    between atoms: _364  and  _367
REMARK  161  A    between atoms: _367  and  _368
REMARK  162  A    between atoms: _368  and  _369
REMARK  163  A    between atoms: _371  and  _373
REMARK  164  A    between atoms: _373  and  _374
REMARK  165  A    between atoms: _373  and  _376
REMARK  166  A    between atoms: _376  and  _377
REMARK  167  A    between atoms: _383  and  _385
REMARK  168  A    between atoms: _385  and  _386
REMARK  169  A    between atoms: _385  and  _388
REMARK  170  A    between atoms: _388  and  _389
REMARK  171  A    between atoms: _391  and  _393
REMARK  172  A    between atoms: _393  and  _394
REMARK  173  A    between atoms: _393  and  _396
REMARK  174  A    between atoms: _396  and  _397
REMARK  175  A    between atoms: _400  and  _402
REMARK  176  A    between atoms: _402  and  _403
REMARK  177  A    between atoms: _402  and  _405
REMARK  178  A    between atoms: _405  and  _406
REMARK  179  A    between atoms: _406  and  _407
REMARK  180  A    between atoms: _407  and  _408
REMARK  181  A    between atoms: _417  and  _419
REMARK  182  A    between atoms: _419  and  _420
REMARK  183  A    between atoms: _419  and  _422
REMARK  184  A    between atoms: _422  and  _423
REMARK  185  A    between atoms: _428  and  _429
REMARK  186  A    between atoms: _431  and  _433
REMARK  187  A    between atoms: _433  and  _434
REMARK  188  A    between atoms: _433  and  _436
REMARK  189  A    between atoms: _436  and  _437
REMARK  190  A    between atoms: _437  and  _438
REMARK  191  A    between atoms: _438  and  _439
REMARK  192  A    between atoms: _448  and  _450
REMARK  193  A    between atoms: _450  and  _451
REMARK  194  A    between atoms: _450  and  _453
REMARK  195  A    between atoms: _453  and  _454
REMARK  196  A    between atoms: _457  and  _459
REMARK  197  A    between atoms: _459  and  _460
REMARK  198  A    between atoms: _459  and  _462
REMARK  199  A    between atoms: _462  and  _463
REMARK  200  A    between atoms: _466  and  _468
REMARK  201  A    between atoms: _468  and  _469
REMARK  202  A    between atoms: _468  and  _471
REMARK  203  A    between atoms: _471  and  _472
REMARK  204  A    between atoms: _472  and  _473
REMARK  205  A    between atoms: _473  and  _474
REMARK  206  A    between atoms: _474  and  _475
REMARK  207  A    between atoms: _480  and  _481
REMARK  208  A    between atoms: _486  and  _488
REMARK  209  A    between atoms: _488  and  _489
REMARK  210  A    between atoms: _488  and  _491
REMARK  211  A    between atoms: _491  and  _492
REMARK  212  A    between atoms: _492  and  _493
REMARK  213  A    between atoms: _496  and  _498
REMARK  214  A    between atoms: _498  and  _499
REMARK  215  A    between atoms: _498  and  _501
REMARK  216  A    between atoms: _501  and  _502
REMARK  217  A    between atoms: _507  and  _509
REMARK  218  A    between atoms: _509  and  _510
REMARK  219  A    between atoms: _509  and  _512
REMARK  220  A    between atoms: _512  and  _513
REMARK  221  A    between atoms: _516  and  _518
REMARK  222  A    between atoms: _518  and  _519
REMARK  223  A    between atoms: _518  and  _521
REMARK  224  A    between atoms: _521  and  _522
REMARK  225  A    between atoms: _525  and  _527
REMARK  226  A    between atoms: _527  and  _528
REMARK  227  A    between atoms: _527  and  _530
REMARK  228  A    between atoms: _530  and  _531
REMARK  229  A    between atoms: _534  and  _536
REMARK  230  A    between atoms: _536  and  _537
REMARK  231  A    between atoms: _536  and  _539
REMARK  232  A    between atoms: _539  and  _540
REMARK  233  A    between atoms: _543  and  _545
REMARK  234  A    between atoms: _545  and  _546
REMARK  235  A    between atoms: _545  and  _548
REMARK  236  A    between atoms: _548  and  _549
REMARK  237  A    between atoms: _549  and  _550
REMARK  238  A    between atoms: _555  and  _557
REMARK  239  A    between atoms: _557  and  _558
REMARK  240  A    between atoms: _557  and  _560
REMARK  241  A    between atoms: _563  and  _565
REMARK  242  A    between atoms: _565  and  _566
REMARK  243  A    between atoms: _565  and  _568
REMARK  244  A    between atoms: _568  and  _569
REMARK  245  A    between atoms: _572  and  _574
REMARK  246  A    between atoms: _574  and  _575
REMARK  247  A    between atoms: _574  and  _577
REMARK  248  A    between atoms: _577  and  _578
REMARK  249  A    between atoms: _581  and  _583
REMARK  250  A    between atoms: _583  and  _584
REMARK  251  A    between atoms: _583  and  _586
REMARK  252  A    between atoms: _586  and  _587
REMARK  253  A    between atoms: _593  and  _595
REMARK  254  A    between atoms: _595  and  _596
REMARK  255  A    between atoms: _598  and  _600
REMARK  256  A    between atoms: _600  and  _601
REMARK  257  A    between atoms: _600  and  _603
REMARK  258  A    between atoms: _603  and  _604
REMARK  259  A    between atoms: _610  and  _612
REMARK  260  A    between atoms: _612  and  _613
REMARK  261  A    between atoms: _612  and  _615
REMARK  262  A    between atoms: _617  and  _619
REMARK  263  A    between atoms: _619  and  _620
REMARK  264  A    between atoms: _622  and  _624
REMARK  265  A    between atoms: _624  and  _625
REMARK  266  A    between atoms: _624  and  _627
REMARK  267  A    between atoms: _627  and  _628
REMARK  268  A    between atoms: _632  and  _633
REMARK  269  A    between atoms: _638  and  _640
REMARK  270  A    between atoms: _640  and  _641
REMARK  271  A    between atoms: _640  and  _643
REMARK  272  A    between atoms: _643  and  _644
REMARK  273  A    between atoms: _644  and  _645
REMARK  274  A    between atoms: _648  and  _650
REMARK  275  A    between atoms: _650  and  _651
REMARK  276  A    between atoms: _650  and  _653
REMARK  277  A    between atoms: _653  and  _654
REMARK  278  A    between atoms: _659  and  _660
REMARK  279  A    between atoms: _662  and  _664
REMARK  280  A    between atoms: _664  and  _665
REMARK  281  A    between atoms: _664  and  _667
REMARK  282  A    between atoms: _670  and  _672
REMARK  283  A    between atoms: _672  and  _673
REMARK  284  A    between atoms: _672  and  _675
REMARK  285  A    between atoms: _675  and  _676
REMARK  286  A    between atoms: _679  and  _681
REMARK  287  A    between atoms: _681  and  _682
REMARK  288  A    between atoms: _681  and  _684
REMARK  289  A    between atoms: _684  and  _685
REMARK  290  A    between atoms: _685  and  _686
REMARK  291  A    between atoms: _689  and  _691
REMARK  292  A    between atoms: _691  and  _692
REMARK  293  A    between atoms: _694  and  _696
REMARK  294  A    between atoms: _696  and  _697
REMARK  295  A    between atoms: _696  and  _699
REMARK  296  A    between atoms: _699  and  _700
REMARK  297  A    between atoms: _705  and  _706
REMARK  298  A    between atoms: _709  and  _710
REMARK  299  A    between atoms: _716  and  _717
REMARK  300  A    between atoms: _722  and  _724
REMARK  301  A    between atoms: _724  and  _725
REMARK  302  A    between atoms: _724  and  _727
REMARK  303  A    between atoms: _727  and  _728
REMARK  304  A    between atoms: _734  and  _736
REMARK  305  A    between atoms: _736  and  _737
REMARK  306  A    between atoms: _736  and  _739
REMARK  307  A    between atoms: _739  and  _740
REMARK  308  A    between atoms: _746  and  _748
REMARK  309  A    between atoms: _748  and  _749
REMARK  310  A    between atoms: _752  and  _754
REMARK  311  A    between atoms: _754  and  _755
REMARK  312  A    between atoms: _754  and  _757
REMARK  313  A    between atoms: _757  and  _758
REMARK                            x       y       z     vdW  Elec       q    Type
REMARK                         _______ _______ _______ _____ _____    ______ ____
ROOT
ATOM      1  CA  ASP A   4      17.961   4.730  14.467  0.00  0.00    +0.160 C 
ENDROOT
BRANCH   1   2
ATOM      2  C   ASP A   4      19.431   4.864  14.849  0.00  0.00    +0.241 C 
ATOM      3  N   PHE A   5      19.981   3.746  15.288  0.00  0.00    -0.297 N 
ATOM      4  H   PHE A   5      19.386   2.895  15.345  0.00  0.00    +0.150 HD
ATOM      5  O   ASP A   4      20.049   5.920  14.707  0.00  0.00    -0.273 OA
BRANCH   3   6
ATOM      6  CA  PHE A   5      21.363   3.641  15.693  0.00  0.00    +0.153 C 
BRANCH   6   7
ATOM      7  C   PHE A   5      22.208   3.012  14.592  0.00  0.00    +0.241 C 
ATOM      8  O   PHE A   5      23.286   2.473  14.853  0.00  0.00    -0.273 OA
ATOM      9  N   GLY A   6      21.710   3.108  13.356  0.00  0.00    -0.295 N 
ATOM     10  H   GLY A   6      20.799   3.592  13.223  0.00  0.00    +0.150 HD
BRANCH   9  11
ATOM     11  CA  GLY A   6      22.393   2.559  12.176  0.00  0.00    +0.176 C 
BRANCH  11  12
ATOM     12  C   GLY A   6      23.842   2.988  12.051  0.00  0.00    +0.243 C 
ATOM     13  N   PHE A   7      24.115   4.243  12.397  0.00  0.00    -0.298 N 
ATOM     14  H   PHE A   7      23.348   4.851  12.748  0.00  0.00    +0.150 HD
ATOM     15  O   GLY A   6      24.709   2.194  11.652  0.00  0.00    -0.273 OA
BRANCH  13  16
ATOM     16  CA  PHE A   7      25.469   4.789  12.296  0.00  0.00    +0.141 C 
BRANCH  16  17
ATOM     17  C   PHE A   7      26.238   4.781  13.613  0.00  0.00    +0.227 C 
ATOM     18  O   PHE A   7      27.408   5.144  13.645  0.00  0.00    -0.286 OA
ENDBRANCH  16  17
BRANCH  16  19
ATOM     19  CB  PHE A   7      25.445   6.216  11.741  0.00  0.00    +0.054 C 
BRANCH  19  20
ATOM     20  CG  PHE A   7      24.766   6.353  10.397  0.00  0.00    -0.020 A 
ATOM     21  CD2 PHE A   7      24.364   7.608   9.945  0.00  0.00    -0.004 A 
ATOM     22  CE2 PHE A   7      23.755   7.765   8.687  0.00  0.00    -0.000 A 
ATOM     23  CZ  PHE A   7      23.557   6.649   7.871  0.00  0.00    -0.000 A 
ATOM     24  CE1 PHE A   7      23.965   5.394   8.305  0.00  0.00    -0.000 A 
ATOM     25  CD1 PHE A   7      24.583   5.249   9.558  0.00  0.00    -0.004 A 
ENDBRANCH  19  20
ENDBRANCH  16  19
ENDBRANCH  13  16
ENDBRANCH  11  12
ENDBRANCH   9  11
ENDBRANCH   6   7
BRANCH   6  26
ATOM     26  CB  PHE A   5      21.430   2.823  16.979  0.00  0.00    +0.055 C 
BRANCH  26  27
ATOM     27  CG  PHE A   5      21.306   3.652  18.214  0.00  0.00    -0.020 A 
ATOM     28  CD2 PHE A   5      22.381   3.771  19.089  0.00  0.00    -0.004 A 
ATOM     29  CE2 PHE A   5      22.279   4.554  20.235  0.00  0.00    -0.000 A 
ATOM     30  CZ  PHE A   5      21.103   5.232  20.500  0.00  0.00    -0.000 A 
ATOM     31  CE1 PHE A   5      20.028   5.129  19.632  0.00  0.00    -0.000 A 
ATOM     32  CD1 PHE A   5      20.134   4.342  18.491  0.00  0.00    -0.004 A 
ENDBRANCH  26  27
ENDBRANCH   6  26
ENDBRANCH   3   6
ENDBRANCH   1   2
BRANCH   1  35
ATOM     33  C   THR A   3      16.864   6.226  16.108  0.00  0.00    +0.243 C 
ATOM     34  O   THR A   3      17.519   7.213  15.777  0.00  0.00    -0.273 OA
ATOM     35  N   ASP A   4      17.012   5.022  15.559  0.00  0.00    -0.296 N 
ATOM     36  H   ASP A   4      16.425   4.243  15.920  0.00  0.00    +0.150 HD
BRANCH  33  37
ATOM     37  CA  THR A   3      15.795   6.324  17.189  0.00  0.00    +0.176 C 
BRANCH  37  40
ATOM     38  C   VAL A   2      16.200   7.571  19.266  0.00  0.00    +0.241 C 
ATOM     39  O   VAL A   2      16.341   6.550  19.946  0.00  0.00    -0.273 OA
ATOM     40  N   THR A   3      15.944   7.558  17.956  0.00  0.00    -0.295 N 
ATOM     41  H   THR A   3      15.846   8.467  17.460  0.00  0.00    +0.150 HD
BRANCH  38  42
ATOM     42  CA  VAL A   2      16.331   8.949  19.905  0.00  0.00    +0.148 C 
BRANCH  42  44
ATOM     43  C   GLN A   1      14.107   9.199  20.931  0.00  0.00    +0.238 C 
ATOM     44  N   VAL A   2      15.427   9.061  21.046  0.00  0.00    -0.297 N 
ATOM     45  H   VAL A   2      15.836   9.031  22.002  0.00  0.00    +0.150 HD
ATOM     46  O   GLN A   1      13.526   9.299  19.844  0.00  0.00    -0.274 OA
BRANCH  43  47
ATOM     47  CA  GLN A   1      13.346   9.302  22.259  0.00  0.00    +0.145 C 
BRANCH  47  48
ATOM     48  N   GLN A   1      12.684  10.606  22.340  0.00  0.00    -0.238 NA
ATOM     49  H   GLN A   1      12.073  10.914  21.557  0.00  0.00    +0.142 HD
ENDBRANCH  47  48
BRANCH  47  50
ATOM     50  CB  GLN A   1      12.367   8.145  22.480  0.00  0.00    +0.036 C 
BRANCH  50  51
ATOM     51  CG  GLN A   1      12.023   7.915  23.953  0.00  0.00    +0.087 C 
BRANCH  51  52
ATOM     52  CD  GLN A   1      11.115   6.734  24.167  0.00  0.00    +0.219 C 
ATOM     53  NE2 GLN A   1       9.903   6.995  24.662  0.00  0.00    -0.329 N 
ATOM     54 HE21 GLN A   1       9.623   7.977  24.861  0.00  0.00    +0.145 HD
ATOM     55 HE22 GLN A   1       9.239   6.217  24.848  0.00  0.00    +0.145 HD
ATOM     56  OE1 GLN A   1      11.497   5.588  23.913  0.00  0.00    -0.275 OA
ENDBRANCH  51  52
ENDBRANCH  50  51
ENDBRANCH  47  50
ENDBRANCH  43  47
ENDBRANCH  42  44
BRANCH  42  57
ATOM     57  CB  VAL A   2      17.822   9.174  20.322  0.00  0.00    +0.027 C 
ATOM     58  CG2 VAL A   2      18.034  10.563  20.917  0.00  0.00    +0.002 C 
ATOM     59  CG1 VAL A   2      18.763   8.980  19.126  0.00  0.00    +0.002 C 
ENDBRANCH  42  57
ENDBRANCH  38  42
ENDBRANCH  37  40
BRANCH  37  60
ATOM     60  CB  THR A   3      14.387   6.206  16.528  0.00  0.00    +0.137 C 
ATOM     61  CG2 THR A   3      14.148   7.311  15.514  0.00  0.00    +0.034 C 
BRANCH  60  62
ATOM     62  OG1 THR A   3      14.281   4.942  15.856  0.00  0.00    -0.382 OA
ATOM     63  HG1 THR A   3      14.402   4.210  16.511  0.00  0.00    +0.210 HD
ENDBRANCH  60  62
ENDBRANCH  37  60
ENDBRANCH  33  37
ENDBRANCH   1  35
BRANCH   1  64
ATOM     64  CB  ASP A   4      17.652   5.508  13.177  0.00  0.00    +0.143 C 
BRANCH  64  65
ATOM     65  CG  ASP A   4      18.418   4.953  11.969  0.00  0.00    +0.367 C 
ATOM     66  OD2 ASP A   4      19.294   4.085  12.176  0.00  0.00    -0.246 OA
ATOM     67  OD1 ASP A   4      18.146   5.374  10.825  0.00  0.00    -0.246 OA
ENDBRANCH  64  65
ENDBRANCH   1  64
TORSDOF 26
REMARK  Name = ../refined-set-2016/3ag9/3ag9_pocket.pdb
REMARK  313 active torsions:
REMARK  status: ('A' for Active; 'I' for Inactive)
REMARK    1  A    between atoms: _1  and  _3
REMARK    2  A    between atoms: _3  and  _4
REMARK    3  A    between atoms: _3  and  _6
REMARK    4  A    between atoms: _6  and  _7
REMARK    5  A    between atoms: _10  and  _12
REMARK    6  A    between atoms: _12  and  _13
REMARK    7  A    between atoms: _12  and  _15
REMARK    8  A    between atoms: _15  and  _16
REMARK    9  A    between atoms: _19  and  _21
REMARK   10  A    between atoms: _21  and  _22
REMARK   11  A    between atoms: _24  and  _26
REMARK   12  A    between atoms: _26  and  _27
REMARK   13  A    between atoms: _26  and  _29
REMARK   14  A    between atoms: _29  and  _30
REMARK   15  A    between atoms: _33  and  _35
REMARK   16  A    between atoms: _35  and  _36
REMARK   17  A    between atoms: _38  and  _40
REMARK   18  A    between atoms: _40  and  _41
REMARK   19  A    between atoms: _40  and  _43
REMARK   20  A    between atoms: _43  and  _44
REMARK   21  A    between atoms: _46  and  _48
REMARK   22  A    between atoms: _48  and  _49
REMARK   23  A    between atoms: _48  and  _51
REMARK   24  A    between atoms: _51  and  _52
REMARK   25  A    between atoms: _58  and  _60
REMARK   26  A    between atoms: _60  and  _61
REMARK   27  A    between atoms: _63  and  _65
REMARK   28  A    between atoms: _65  and  _66
REMARK   29  A    between atoms: _65  and  _68
REMARK   30  A    between atoms: _68  and  _69
REMARK   31  A    between atoms: _69  and  _70
REMARK   32  A    between atoms: _70  and  _71
REMARK   33  A    between atoms: _80  and  _82
REMARK   34  A    between atoms: _82  and  _83
REMARK   35  A    between atoms: _82  and  _85
REMARK   36  A    between atoms: _88  and  _90
REMARK   37  A    between atoms: _90  and  _91
REMARK   38  A    between atoms: _90  and  _93
REMARK   39  A    between atoms: _93  and  _94
REMARK   40  A    between atoms: _94  and  _95
REMARK   41  A    between atoms: _97  and  _99
REMARK   42  A    between atoms: _99  and  _100
REMARK   43  A    between atoms: _99  and  _102
REMARK   44  A    between atoms: _102  and  _103
REMARK   45  A    between atoms: _106  and  _108
REMARK   46  A    between atoms: _108  and  _109
REMARK   47  A    between atoms: _108  and  _111
REMARK   48  A    between atoms: _111  and  _112
REMARK   49  A    between atoms: _117  and  _118
REMARK   50  A    between atoms: _120  and  _122
REMARK   51  A    between atoms: _122  and  _123
REMARK   52  A    between atoms: _126  and  _128
REMARK   53  A    between atoms: _128  and  _129
REMARK   54  A    between atoms: _128  and  _131
REMARK   55  A    between atoms: _131  and  _132
REMARK   56  A    between atoms: _132  and  _133
REMARK   57  A    between atoms: _135  and  _137
REMARK   58  A    between atoms: _137  and  _138
REMARK   59  A    between atoms: _137  and  _140
REMARK   60  A    between atoms: _140  and  _141
REMARK   61  A    between atoms: _141  and  _142
REMARK   62  A    between atoms: _142  and  _143
REMARK   63  A    between atoms: _143  and  _144
REMARK   64  A    between atoms: _148  and  _150
REMARK   65  A    between atoms: _150  and  _151
REMARK   66  A    between atoms: _150  and  _153
REMARK   67  A    between atoms: _153  and  _154
REMARK   68  A    between atoms: _157  and  _159
REMARK   69  A    between atoms: _159  and  _160
REMARK   70  A    between atoms: _159  and  _162
REMARK   71  A    between atoms: _162  and  _163
REMARK   72  A    between atoms: _166  and  _168
REMARK   73  A    between atoms: _168  and  _169
REMARK   74  A    between atoms: _168  and  _171
REMARK   75  A    between atoms: _171  and  _172
REMARK   76  A    between atoms: _175  and  _177
REMARK   77  A    between atoms: _177  and  _178
REMARK   78  A    between atoms: _177  and  _180
REMARK   79  A    between atoms: _180  and  _181
REMARK   80  A    between atoms: _181  and  _182
REMARK   81  A    between atoms: _182  and  _183
REMARK   82  A    between atoms: _183  and  _184
REMARK   83  A    between atoms: _188  and  _190
REMARK   84  A    between atoms: _190  and  _191
REMARK   85  A    between atoms: _190  and  _193
REMARK   86  A    between atoms: _196  and  _198
REMARK   87  A    between atoms: _198  and  _199
REMARK   88  A    between atoms: _198  and  _201
REMARK   89  A    between atoms: _201  and  _202
REMARK   90  A    between atoms: _205  and  _207
REMARK   91  A    between atoms: _207  and  _208
REMARK   92  A    between atoms: _207  and  _210
REMARK   93  A    between atoms: _210  and  _211
REMARK   94  A    between atoms: _211  and  _212
REMARK   95  A    between atoms: _217  and  _219
REMARK   96  A    between atoms: _219  and  _220
REMARK   97  A    between atoms: _219  and  _222
REMARK   98  A    between atoms: _222  and  _223
REMARK   99  A    between atoms: _228  and  _230
REMARK  100  A    between atoms: _230  and  _231
REMARK  101  A    between atoms: _230  and  _233
REMARK  102  A    between atoms: _233  and  _234
REMARK  103  A    between atoms: _237  and  _239
REMARK  104  A    between atoms: _239  and  _240
REMARK  105  A    between atoms: _239  and  _242
REMARK  106  A    between atoms: _242  and  _243
REMARK  107  A    between atoms: _243  and  _244
REMARK  108  A    between atoms: _247  and  _249
REMARK  109  A    between atoms: _249  and  _250
REMARK  110  A    between atoms: _249  and  _252
REMARK  111  A    between atoms: _255  and  _257
REMARK  112  A    between atoms: _257  and  _258
REMARK  113  A    between atoms: _257  and  _260
REMARK  114  A    between atoms: _260  and  _261
REMARK  115  A    between atoms: _261  and  _262
REMARK  116  A    between atoms: _262  and  _263
REMARK  117  A    between atoms: _263  and  _264
REMARK  118  A    between atoms: _268  and  _270
REMARK  119  A    between atoms: _270  and  _271
REMARK  120  A    between atoms: _270  and  _273
REMARK  121  A    between atoms: _273  and  _274
REMARK  122  A    between atoms: _277  and  _279
REMARK  123  A    between atoms: _279  and  _280
REMARK  124  A    between atoms: _279  and  _282
REMARK  125  A    between atoms: _282  and  _283
REMARK  126  A    between atoms: _283  and  _284
REMARK  127  A    between atoms: _286  and  _288
REMARK  128  A    between atoms: _288  and  _289
REMARK  129  A    between atoms: _288  and  _291
REMARK  130  A    between atoms: _294  and  _296
REMARK  131  A    between atoms: _296  and  _297
REMARK  132  A    between atoms: _296  and  _299
REMARK  133  A    between atoms: _299  and  _300
REMARK  134  A    between atoms: _300  and  _301
REMARK  135  A    between atoms: _303  and  _305
REMARK  136  A    between atoms: _305  and  _306
REMARK  137  A    between atoms: _305  and  _308
REMARK  138  A    between atoms: _308  and  _309
REMARK  139  A    between atoms: _309  and  _310
REMARK  140  A    between atoms: _313  and  _315
REMARK  141  A    between atoms: _315  and  _316
REMARK  142  A    between atoms: _315  and  _318
REMARK  143  A    between atoms: _318  and  _319
REMARK  144  A    between atoms: _324  and  _325
REMARK  145  A    between atoms: _327  and  _329
REMARK  146  A    between atoms: _329  and  _330
REMARK  147  A    between atoms: _329  and  _332
REMARK  148  A    between atoms: _336  and  _337
REMARK  149  A    between atoms: _342  and  _344
REMARK  150  A    between atoms: _344  and  _345
REMARK  151  A    between atoms: _347  and  _349
REMARK  152  A    between atoms: _349  and  _350
REMARK  153  A    between atoms: _352  and  _354
REMARK  154  A    between atoms: _354  and  _355
REMARK  155  A    between atoms: _354  and  _357
REMARK  156  A    between atoms: _357  and  _358
REMARK  157  A    between atoms: _358  and  _359
REMARK  158  A    between atoms: _362  and  _364
REMARK  159  A    between atoms: _364  and  _365
REMARK  160  A    between atoms: _364  and  _367
REMARK  161  A    between atoms: _367  and  _368
REMARK  162  A    between atoms: _368  and  _369
REMARK  163  A    between atoms: _371  and  _373
REMARK  164  A    between atoms: _373  and  _374
REMARK  165  A    between atoms: _373  and  _376
REMARK  166  A    between atoms: _376  and  _377
REMARK  167  A    between atoms: _383  and  _385
REMARK  168  A    between atoms: _385  and  _386
REMARK  169  A    between atoms: _385  and  _388
REMARK  170  A    between atoms: _388  and  _389
REMARK  171  A    between atoms: _391  and  _393
REMARK  172  A    between atoms: _393  and  _394
REMARK  173  A    between atoms: _393  and  _396
REMARK  174  A    between atoms: _396  and  _397
REMARK  175  A    between atoms: _400  and  _402
REMARK  176  A    between atoms: _402  and  _403
REMARK  177  A    between atoms: _402  and  _405
REMARK  178  A    between atoms: _405  and  _406
REMARK  179  A    between atoms: _406  and  _407
REMARK  180  A    between atoms: _407  and  _408
REMARK  181  A    between atoms: _417  and  _419
REMARK  182  A    between atoms: _419  and  _420
REMARK  183  A    between atoms: _419  and  _422
REMARK  184  A    between atoms: _422  and  _423
REMARK  185  A    between atoms: _428  and  _429
REMARK  186  A    between atoms: _431  and  _433
REMARK  187  A    between atoms: _433  and  _434
REMARK  188  A    between atoms: _433  and  _436
REMARK  189  A    between atoms: _436  and  _437
REMARK  190  A    between atoms: _437  and  _438
REMARK  191  A    between atoms: _438  and  _439
REMARK  192  A    between atoms: _448  and  _450
REMARK  193  A    between atoms: _450  and  _451
REMARK  194  A    between atoms: _450  and  _453
REMARK  195  A    between atoms: _453  and  _454
REMARK  196  A    between atoms: _457  and  _459
REMARK  197  A    between atoms: _459  and  _460
REMARK  198  A    between atoms: _459  and  _462
REMARK  199  A    between atoms: _462  and  _463
REMARK  200  A    between atoms: _466  and  _468
REMARK  201  A    between atoms: _468  and  _469
REMARK  202  A    between atoms: _468  and  _471
REMARK  203  A    between atoms: _471  and  _472
REMARK  204  A    between atoms: _472  and  _473
REMARK  205  A    between atoms: _473  and  _474
REMARK  206  A    between atoms: _474  and  _475
REMARK  207  A    between atoms: _480  and  _481
REMARK  208  A    between atoms: _486  and  _488
REMARK  209  A    between atoms: _488  and  _489
REMARK  210  A    between atoms: _488  and  _491
REMARK  211  A    between atoms: _491  and  _492
REMARK  212  A    between atoms: _492  and  _493
REMARK  213  A    between atoms: _496  and  _498
REMARK  214  A    between atoms: _498  and  _499
REMARK  215  A    between atoms: _498  and  _501
REMARK  216  A    between atoms: _501  and  _502
REMARK  217  A    between atoms: _507  and  _509
REMARK  218  A    between atoms: _509  and  _510
REMARK  219  A    between atoms: _509  and  _512
REMARK  220  A    between atoms: _512  and  _513
REMARK  221  A    between atoms: _516  and  _518
REMARK  222  A    between atoms: _518  and  _519
REMARK  223  A    between atoms: _518  and  _521
REMARK  224  A    between atoms: _521  and  _522
REMARK  225  A    between atoms: _525  and  _527
REMARK  226  A    between atoms: _527  and  _528
REMARK  227  A    between atoms: _527  and  _530
REMARK  228  A    between atoms: _530  and  _531
REMARK  229  A    between atoms: _534  and  _536
REMARK  230  A    between atoms: _536  and  _537
REMARK  231  A    between atoms: _536  and  _539
REMARK  232  A    between atoms: _539  and  _540
REMARK  233  A    between atoms: _543  and  _545
REMARK  234  A    between atoms: _545  and  _546
REMARK  235  A    between atoms: _545  and  _548
REMARK  236  A    between atoms: _548  and  _549
REMARK  237  A    between atoms: _549  and  _550
REMARK  238  A    between atoms: _555  and  _557
REMARK  239  A    between atoms: _557  and  _558
REMARK  240  A    between atoms: _557  and  _560
REMARK  241  A    between atoms: _563  and  _565
REMARK  242  A    between atoms: _565  and  _566
REMARK  243  A    between atoms: _565  and  _568
REMARK  244  A    between atoms: _568  and  _569
REMARK  245  A    between atoms: _572  and  _574
REMARK  246  A    between atoms: _574  and  _575
REMARK  247  A    between atoms: _574  and  _577
REMARK  248  A    between atoms: _577  and  _578
REMARK  249  A    between atoms: _581  and  _583
REMARK  250  A    between atoms: _583  and  _584
REMARK  251  A    between atoms: _583  and  _586
REMARK  252  A    between atoms: _586  and  _587
REMARK  253  A    between atoms: _593  and  _595
REMARK  254  A    between atoms: _595  and  _596
REMARK  255  A    between atoms: _598  and  _600
REMARK  256  A    between atoms: _600  and  _601
REMARK  257  A    between atoms: _600  and  _603
REMARK  258  A    between atoms: _603  and  _604
REMARK  259  A    between atoms: _610  and  _612
REMARK  260  A    between atoms: _612  and  _613
REMARK  261  A    between atoms: _612  and  _615
REMARK  262  A    between atoms: _617  and  _619
REMARK  263  A    between atoms: _619  and  _620
REMARK  264  A    between atoms: _622  and  _624
REMARK  265  A    between atoms: _624  and  _625
REMARK  266  A    between atoms: _624  and  _627
REMARK  267  A    between atoms: _627  and  _628
REMARK  268  A    between atoms: _632  and  _633
REMARK  269  A    between atoms: _638  and  _640
REMARK  270  A    between atoms: _640  and  _641
REMARK  271  A    between atoms: _640  and  _643
REMARK  272  A    between atoms: _643  and  _644
REMARK  273  A    between atoms: _644  and  _645
REMARK  274  A    between atoms: _648  and  _650
REMARK  275  A    between atoms: _650  and  _651
REMARK  276  A    between atoms: _650  and  _653
REMARK  277  A    between atoms: _653  and  _654
REMARK  278  A    between atoms: _659  and  _660
REMARK  279  A    between atoms: _662  and  _664
REMARK  280  A    between atoms: _664  and  _665
REMARK  281  A    between atoms: _664  and  _667
REMARK  282  A    between atoms: _670  and  _672
REMARK  283  A    between atoms: _672  and  _673
REMARK  284  A    between atoms: _672  and  _675
REMARK  285  A    between atoms: _675  and  _676
REMARK  286  A    between atoms: _679  and  _681
REMARK  287  A    between atoms: _681  and  _682
REMARK  288  A    between atoms: _681  and  _684
REMARK  289  A    between atoms: _684  and  _685
REMARK  290  A    between atoms: _685  and  _686
REMARK  291  A    between atoms: _689  and  _691
REMARK  292  A    between atoms: _691  and  _692
REMARK  293  A    between atoms: _694  and  _696
REMARK  294  A    between atoms: _696  and  _697
REMARK  295  A    between atoms: _696  and  _699
REMARK  296  A    between atoms: _699  and  _700
REMARK  297  A    between atoms: _705  and  _706
REMARK  298  A    between atoms: _709  and  _710
REMARK  299  A    between atoms: _716  and  _717
REMARK  300  A    between atoms: _722  and  _724
REMARK  301  A    between atoms: _724  and  _725
REMARK  302  A    between atoms: _724  and  _727
REMARK  303  A    between atoms: _727  and  _728
REMARK  304  A    between atoms: _734  and  _736
REMARK  305  A    between atoms: _736  and  _737
REMARK  306  A    between atoms: _736  and  _739
REMARK  307  A    between atoms: _739  and  _740
REMARK  308  A    between atoms: _746  and  _748
REMARK  309  A    between atoms: _748  and  _749
REMARK  310  A    between atoms: _752  and  _754
REMARK  311  A    between atoms: _754  and  _755
REMARK  312  A    between atoms: _754  and  _757
REMARK  313  A    between atoms: _757  and  _758
REMARK                            x       y       z     vdW  Elec       q    Type
REMARK                         _______ _______ _______ _____ _____    ______ ____
ROOT
ATOM      1  C   THR A   3      24.501  15.001   6.618  0.00  0.00    +0.246 C 
ATOM      2  O   THR A   3      24.944  15.400   7.705  0.00  0.00    -0.273 OA
ATOM      3  N   PRO A   4      24.814  15.565   5.435  0.00  0.00    -0.272 N 
ATOM      4  CA  PRO A   4      25.811  16.633   5.285  0.00  0.00    +0.152 C 
ATOM      5  CB  PRO A   4      25.542  17.163   3.863  0.00  0.00    +0.031 C 
ATOM      6  CG  PRO A   4      24.915  16.030   3.146  0.00  0.00    +0.024 C 
ATOM      7  CD  PRO A   4      24.128  15.263   4.156  0.00  0.00    +0.094 C 
ENDROOT
BRANCH   4   8
ATOM      8  C   PRO A   4      25.659  17.763   6.314  0.00  0.00    +0.241 C 
ATOM      9  O   PRO A   4      26.641  18.205   6.909  0.00  0.00    -0.273 OA
ATOM     10  N   GLU A   5      24.430  18.203   6.540  0.00  0.00    -0.297 N 
ATOM     11  H   GLU A   5      23.630  17.716   6.088  0.00  0.00    +0.150 HD
BRANCH  10  12
ATOM     12  CA  GLU A   5      24.161  19.355   7.407  0.00  0.00    +0.149 C 
BRANCH  12  13
ATOM     13  C   GLU A   5      24.642  19.194   8.841  0.00  0.00    +0.241 C 
ATOM     14  O   GLU A   5      24.884  20.190   9.521  0.00  0.00    -0.273 OA
ATOM     15  N   TYR A   6      24.782  17.948   9.292  0.00  0.00    -0.298 N 
ATOM     16  H   TYR A   6      24.653  17.156   8.630  0.00  0.00    +0.150 HD
BRANCH  15  17
ATOM     17  CA  TYR A   6      25.114  17.655  10.697  0.00  0.00    +0.141 C 
BRANCH  17  18
ATOM     18  C   TYR A   6      26.525  17.114  10.886  0.00  0.00    +0.227 C 
ATOM     19  O   TYR A   6      26.976  16.898  12.028  0.00  0.00    -0.286 OA
ENDBRANCH  17  18
BRANCH  17  20
ATOM     20  CB  TYR A   6      24.080  16.701  11.305  0.00  0.00    +0.054 C 
BRANCH  20  21
ATOM     21  CG  TYR A   6      22.839  17.437  11.741  0.00  0.00    -0.020 A 
ATOM     22  CD2 TYR A   6      22.597  17.696  13.091  0.00  0.00    -0.001 A 
ATOM     23  CE2 TYR A   6      21.448  18.387  13.496  0.00  0.00    +0.036 A 
ATOM     24  CZ  TYR A   6      20.564  18.843  12.544  0.00  0.00    +0.134 A 
ATOM     25  CE1 TYR A   6      20.789  18.607  11.187  0.00  0.00    +0.036 A 
ATOM     26  CD1 TYR A   6      21.923  17.910  10.799  0.00  0.00    -0.001 A 
BRANCH  24  27
ATOM     27  OH  TYR A   6      19.441  19.547  12.922  0.00  0.00    -0.506 OA
ATOM     28  HH  TYR A   6      19.465  20.448  12.513  0.00  0.00    +0.292 HD
ENDBRANCH  24  27
ENDBRANCH  20  21
ENDBRANCH  17  20
ENDBRANCH  15  17
ENDBRANCH  12  13
BRANCH  12  29
ATOM     29  CB  GLU A   5      22.660  19.674   7.403  0.00  0.00    +0.041 C 
BRANCH  29  30
ATOM     30  CG  GLU A   5      22.183  20.366   6.138  0.00  0.00    +0.116 C 
BRANCH  30  31
ATOM     31  CD  GLU A   5      21.665  19.401   5.073  0.00  0.00    +0.365 C 
ATOM     32  OE2 GLU A   5      22.017  18.211   5.108  0.00  0.00    -0.246 OA
ATOM     33  OE1 GLU A   5      20.894  19.845   4.195  0.00  0.00    -0.246 OA
ENDBRANCH  30  31
ENDBRANCH  29  30
ENDBRANCH  12  29
ENDBRANCH  10  12
ENDBRANCH   4   8
BRANCH   1  34
ATOM     34  CA  THR A   3      23.523  13.845   6.577  0.00  0.00    +0.176 C 
BRANCH  34  36
ATOM     35  C   GLY A   2      24.915  11.837   6.256  0.00  0.00    +0.243 C 
ATOM     36  N   THR A   3      24.169  12.619   7.040  0.00  0.00    -0.295 N 
ATOM     37  H   THR A   3      24.041  12.340   8.034  0.00  0.00    +0.150 HD
ATOM     38  O   GLY A   2      25.182  12.098   5.084  0.00  0.00    -0.273 OA
BRANCH  35  39
ATOM     39  CA  GLY A   2      25.422  10.564   6.909  0.00  0.00    +0.176 C 
BRANCH  39  42
ATOM     40  C   CYS A   1      27.572   9.430   6.914  0.00  0.00    +0.239 C 
ATOM     41  O   CYS A   1      27.789   9.724   8.097  0.00  0.00    -0.274 OA
ATOM     42  N   GLY A   2      26.500   9.841   6.237  0.00  0.00    -0.296 N 
ATOM     43  H   GLY A   2      26.430   9.645   5.218  0.00  0.00    +0.150 HD
BRANCH  40  44
ATOM     44  CA  CYS A   1      28.563   8.565   6.152  0.00  0.00    +0.156 C 
BRANCH  44  45
ATOM     45  CB  CYS A   1      28.414   7.104   6.600  0.00  0.00    +0.095 C 
ATOM     46  SG  CYS A   1      26.763   6.396   6.342  0.00  0.00    -0.080 S 
ENDBRANCH  44  45
BRANCH  44  47
ATOM     47  N   CYS A   1      29.933   9.012   6.372  0.00  0.00    -0.237 NA
ATOM     48  H   CYS A   1      30.205   9.399   7.298  0.00  0.00    +0.142 HD
ENDBRANCH  44  47
ENDBRANCH  40  44
ENDBRANCH  39  42
ENDBRANCH  35  39
ENDBRANCH  34  36
BRANCH  34  49
ATOM     49  CB  THR A   3      22.281  14.206   7.435  0.00  0.00    +0.137 C 
ATOM     50  CG2 THR A   3      21.440  15.264   6.748  0.00  0.00    +0.034 C 
BRANCH  49  51
ATOM     51  OG1 THR A   3      21.485  13.038   7.638  0.00  0.00    -0.382 OA
ATOM     52  HG1 THR A   3      22.022  12.351   8.107  0.00  0.00    +0.210 HD
ENDBRANCH  49  51
ENDBRANCH  34  49
ENDBRANCH   1  34
TORSDOF 20
REMARK  Name = ../refined-set-2016/3ag9/3ag9_pocket.pdb
REMARK  313 active torsions:
REMARK  status: ('A' for Active; 'I' for Inactive)
REMARK    1  A    between atoms: _1  and  _3
REMARK    2  A    between atoms: _3  and  _4
REMARK    3  A    between atoms: _3  and  _6
REMARK    4  A    between atoms: _6  and  _7
REMARK    5  A    between atoms: _10  and  _12
REMARK    6  A    between atoms: _12  and  _13
REMARK    7  A    between atoms: _12  and  _15
REMARK    8  A    between atoms: _15  and  _16
REMARK    9  A    between atoms: _19  and  _21
REMARK   10  A    between atoms: _21  and  _22
REMARK   11  A    between atoms: _24  and  _26
REMARK   12  A    between atoms: _26  and  _27
REMARK   13  A    between atoms: _26  and  _29
REMARK   14  A    between atoms: _29  and  _30
REMARK   15  A    between atoms: _33  and  _35
REMARK   16  A    between atoms: _35  and  _36
REMARK   17  A    between atoms: _38  and  _40
REMARK   18  A    between atoms: _40  and  _41
REMARK   19  A    between atoms: _40  and  _43
REMARK   20  A    between atoms: _43  and  _44
REMARK   21  A    between atoms: _46  and  _48
REMARK   22  A    between atoms: _48  and  _49
REMARK   23  A    between atoms: _48  and  _51
REMARK   24  A    between atoms: _51  and  _52
REMARK   25  A    between atoms: _58  and  _60
REMARK   26  A    between atoms: _60  and  _61
REMARK   27  A    between atoms: _63  and  _65
REMARK   28  A    between atoms: _65  and  _66
REMARK   29  A    between atoms: _65  and  _68
REMARK   30  A    between atoms: _68  and  _69
REMARK   31  A    between atoms: _69  and  _70
REMARK   32  A    between atoms: _70  and  _71
REMARK   33  A    between atoms: _80  and  _82
REMARK   34  A    between atoms: _82  and  _83
REMARK   35  A    between atoms: _82  and  _85
REMARK   36  A    between atoms: _88  and  _90
REMARK   37  A    between atoms: _90  and  _91
REMARK   38  A    between atoms: _90  and  _93
REMARK   39  A    between atoms: _93  and  _94
REMARK   40  A    between atoms: _94  and  _95
REMARK   41  A    between atoms: _97  and  _99
REMARK   42  A    between atoms: _99  and  _100
REMARK   43  A    between atoms: _99  and  _102
REMARK   44  A    between atoms: _102  and  _103
REMARK   45  A    between atoms: _106  and  _108
REMARK   46  A    between atoms: _108  and  _109
REMARK   47  A    between atoms: _108  and  _111
REMARK   48  A    between atoms: _111  and  _112
REMARK   49  A    between atoms: _117  and  _118
REMARK   50  A    between atoms: _120  and  _122
REMARK   51  A    between atoms: _122  and  _123
REMARK   52  A    between atoms: _126  and  _128
REMARK   53  A    between atoms: _128  and  _129
REMARK   54  A    between atoms: _128  and  _131
REMARK   55  A    between atoms: _131  and  _132
REMARK   56  A    between atoms: _132  and  _133
REMARK   57  A    between atoms: _135  and  _137
REMARK   58  A    between atoms: _137  and  _138
REMARK   59  A    between atoms: _137  and  _140
REMARK   60  A    between atoms: _140  and  _141
REMARK   61  A    between atoms: _141  and  _142
REMARK   62  A    between atoms: _142  and  _143
REMARK   63  A    between atoms: _143  and  _144
REMARK   64  A    between atoms: _148  and  _150
REMARK   65  A    between atoms: _150  and  _151
REMARK   66  A    between atoms: _150  and  _153
REMARK   67  A    between atoms: _153  and  _154
REMARK   68  A    between atoms: _157  and  _159
REMARK   69  A    between atoms: _159  and  _160
REMARK   70  A    between atoms: _159  and  _162
REMARK   71  A    between atoms: _162  and  _163
REMARK   72  A    between atoms: _166  and  _168
REMARK   73  A    between atoms: _168  and  _169
REMARK   74  A    between atoms: _168  and  _171
REMARK   75  A    between atoms: _171  and  _172
REMARK   76  A    between atoms: _175  and  _177
REMARK   77  A    between atoms: _177  and  _178
REMARK   78  A    between atoms: _177  and  _180
REMARK   79  A    between atoms: _180  and  _181
REMARK   80  A    between atoms: _181  and  _182
REMARK   81  A    between atoms: _182  and  _183
REMARK   82  A    between atoms: _183  and  _184
REMARK   83  A    between atoms: _188  and  _190
REMARK   84  A    between atoms: _190  and  _191
REMARK   85  A    between atoms: _190  and  _193
REMARK   86  A    between atoms: _196  and  _198
REMARK   87  A    between atoms: _198  and  _199
REMARK   88  A    between atoms: _198  and  _201
REMARK   89  A    between atoms: _201  and  _202
REMARK   90  A    between atoms: _205  and  _207
REMARK   91  A    between atoms: _207  and  _208
REMARK   92  A    between atoms: _207  and  _210
REMARK   93  A    between atoms: _210  and  _211
REMARK   94  A    between atoms: _211  and  _212
REMARK   95  A    between atoms: _217  and  _219
REMARK   96  A    between atoms: _219  and  _220
REMARK   97  A    between atoms: _219  and  _222
REMARK   98  A    between atoms: _222  and  _223
REMARK   99  A    between atoms: _228  and  _230
REMARK  100  A    between atoms: _230  and  _231
REMARK  101  A    between atoms: _230  and  _233
REMARK  102  A    between atoms: _233  and  _234
REMARK  103  A    between atoms: _237  and  _239
REMARK  104  A    between atoms: _239  and  _240
REMARK  105  A    between atoms: _239  and  _242
REMARK  106  A    between atoms: _242  and  _243
REMARK  107  A    between atoms: _243  and  _244
REMARK  108  A    between atoms: _247  and  _249
REMARK  109  A    between atoms: _249  and  _250
REMARK  110  A    between atoms: _249  and  _252
REMARK  111  A    between atoms: _255  and  _257
REMARK  112  A    between atoms: _257  and  _258
REMARK  113  A    between atoms: _257  and  _260
REMARK  114  A    between atoms: _260  and  _261
REMARK  115  A    between atoms: _261  and  _262
REMARK  116  A    between atoms: _262  and  _263
REMARK  117  A    between atoms: _263  and  _264
REMARK  118  A    between atoms: _268  and  _270
REMARK  119  A    between atoms: _270  and  _271
REMARK  120  A    between atoms: _270  and  _273
REMARK  121  A    between atoms: _273  and  _274
REMARK  122  A    between atoms: _277  and  _279
REMARK  123  A    between atoms: _279  and  _280
REMARK  124  A    between atoms: _279  and  _282
REMARK  125  A    between atoms: _282  and  _283
REMARK  126  A    between atoms: _283  and  _284
REMARK  127  A    between atoms: _286  and  _288
REMARK  128  A    between atoms: _288  and  _289
REMARK  129  A    between atoms: _288  and  _291
REMARK  130  A    between atoms: _294  and  _296
REMARK  131  A    between atoms: _296  and  _297
REMARK  132  A    between atoms: _296  and  _299
REMARK  133  A    between atoms: _299  and  _300
REMARK  134  A    between atoms: _300  and  _301
REMARK  135  A    between atoms: _303  and  _305
REMARK  136  A    between atoms: _305  and  _306
REMARK  137  A    between atoms: _305  and  _308
REMARK  138  A    between atoms: _308  and  _309
REMARK  139  A    between atoms: _309  and  _310
REMARK  140  A    between atoms: _313  and  _315
REMARK  141  A    between atoms: _315  and  _316
REMARK  142  A    between atoms: _315  and  _318
REMARK  143  A    between atoms: _318  and  _319
REMARK  144  A    between atoms: _324  and  _325
REMARK  145  A    between atoms: _327  and  _329
REMARK  146  A    between atoms: _329  and  _330
REMARK  147  A    between atoms: _329  and  _332
REMARK  148  A    between atoms: _336  and  _337
REMARK  149  A    between atoms: _342  and  _344
REMARK  150  A    between atoms: _344  and  _345
REMARK  151  A    between atoms: _347  and  _349
REMARK  152  A    between atoms: _349  and  _350
REMARK  153  A    between atoms: _352  and  _354
REMARK  154  A    between atoms: _354  and  _355
REMARK  155  A    between atoms: _354  and  _357
REMARK  156  A    between atoms: _357  and  _358
REMARK  157  A    between atoms: _358  and  _359
REMARK  158  A    between atoms: _362  and  _364
REMARK  159  A    between atoms: _364  and  _365
REMARK  160  A    between atoms: _364  and  _367
REMARK  161  A    between atoms: _367  and  _368
REMARK  162  A    between atoms: _368  and  _369
REMARK  163  A    between atoms: _371  and  _373
REMARK  164  A    between atoms: _373  and  _374
REMARK  165  A    between atoms: _373  and  _376
REMARK  166  A    between atoms: _376  and  _377
REMARK  167  A    between atoms: _383  and  _385
REMARK  168  A    between atoms: _385  and  _386
REMARK  169  A    between atoms: _385  and  _388
REMARK  170  A    between atoms: _388  and  _389
REMARK  171  A    between atoms: _391  and  _393
REMARK  172  A    between atoms: _393  and  _394
REMARK  173  A    between atoms: _393  and  _396
REMARK  174  A    between atoms: _396  and  _397
REMARK  175  A    between atoms: _400  and  _402
REMARK  176  A    between atoms: _402  and  _403
REMARK  177  A    between atoms: _402  and  _405
REMARK  178  A    between atoms: _405  and  _406
REMARK  179  A    between atoms: _406  and  _407
REMARK  180  A    between atoms: _407  and  _408
REMARK  181  A    between atoms: _417  and  _419
REMARK  182  A    between atoms: _419  and  _420
REMARK  183  A    between atoms: _419  and  _422
REMARK  184  A    between atoms: _422  and  _423
REMARK  185  A    between atoms: _428  and  _429
REMARK  186  A    between atoms: _431  and  _433
REMARK  187  A    between atoms: _433  and  _434
REMARK  188  A    between atoms: _433  and  _436
REMARK  189  A    between atoms: _436  and  _437
REMARK  190  A    between atoms: _437  and  _438
REMARK  191  A    between atoms: _438  and  _439
REMARK  192  A    between atoms: _448  and  _450
REMARK  193  A    between atoms: _450  and  _451
REMARK  194  A    between atoms: _450  and  _453
REMARK  195  A    between atoms: _453  and  _454
REMARK  196  A    between atoms: _457  and  _459
REMARK  197  A    between atoms: _459  and  _460
REMARK  198  A    between atoms: _459  and  _462
REMARK  199  A    between atoms: _462  and  _463
REMARK  200  A    between atoms: _466  and  _468
REMARK  201  A    between atoms: _468  and  _469
REMARK  202  A    between atoms: _468  and  _471
REMARK  203  A    between atoms: _471  and  _472
REMARK  204  A    between atoms: _472  and  _473
REMARK  205  A    between atoms: _473  and  _474
REMARK  206  A    between atoms: _474  and  _475
REMARK  207  A    between atoms: _480  and  _481
REMARK  208  A    between atoms: _486  and  _488
REMARK  209  A    between atoms: _488  and  _489
REMARK  210  A    between atoms: _488  and  _491
REMARK  211  A    between atoms: _491  and  _492
REMARK  212  A    between atoms: _492  and  _493
REMARK  213  A    between atoms: _496  and  _498
REMARK  214  A    between atoms: _498  and  _499
REMARK  215  A    between atoms: _498  and  _501
REMARK  216  A    between atoms: _501  and  _502
REMARK  217  A    between atoms: _507  and  _509
REMARK  218  A    between atoms: _509  and  _510
REMARK  219  A    between atoms: _509  and  _512
REMARK  220  A    between atoms: _512  and  _513
REMARK  221  A    between atoms: _516  and  _518
REMARK  222  A    between atoms: _518  and  _519
REMARK  223  A    between atoms: _518  and  _521
REMARK  224  A    between atoms: _521  and  _522
REMARK  225  A    between atoms: _525  and  _527
REMARK  226  A    between atoms: _527  and  _528
REMARK  227  A    between atoms: _527  and  _530
REMARK  228  A    between atoms: _530  and  _531
REMARK  229  A    between atoms: _534  and  _536
REMARK  230  A    between atoms: _536  and  _537
REMARK  231  A    between atoms: _536  and  _539
REMARK  232  A    between atoms: _539  and  _540
REMARK  233  A    between atoms: _543  and  _545
REMARK  234  A    between atoms: _545  and  _546
REMARK  235  A    between atoms: _545  and  _548
REMARK  236  A    between atoms: _548  and  _549
REMARK  237  A    between atoms: _549  and  _550
REMARK  238  A    between atoms: _555  and  _557
REMARK  239  A    between atoms: _557  and  _558
REMARK  240  A    between atoms: _557  and  _560
REMARK  241  A    between atoms: _563  and  _565
REMARK  242  A    between atoms: _565  and  _566
REMARK  243  A    between atoms: _565  and  _568
REMARK  244  A    between atoms: _568  and  _569
REMARK  245  A    between atoms: _572  and  _574
REMARK  246  A    between atoms: _574  and  _575
REMARK  247  A    between atoms: _574  and  _577
REMARK  248  A    between atoms: _577  and  _578
REMARK  249  A    between atoms: _581  and  _583
REMARK  250  A    between atoms: _583  and  _584
REMARK  251  A    between atoms: _583  and  _586
REMARK  252  A    between atoms: _586  and  _587
REMARK  253  A    between atoms: _593  and  _595
REMARK  254  A    between atoms: _595  and  _596
REMARK  255  A    between atoms: _598  and  _600
REMARK  256  A    between atoms: _600  and  _601
REMARK  257  A    between atoms: _600  and  _603
REMARK  258  A    between atoms: _603  and  _604
REMARK  259  A    between atoms: _610  and  _612
REMARK  260  A    between atoms: _612  and  _613
REMARK  261  A    between atoms: _612  and  _615
REMARK  262  A    between atoms: _617  and  _619
REMARK  263  A    between atoms: _619  and  _620
REMARK  264  A    between atoms: _622  and  _624
REMARK  265  A    between atoms: _624  and  _625
REMARK  266  A    between atoms: _624  and  _627
REMARK  267  A    between atoms: _627  and  _628
REMARK  268  A    between atoms: _632  and  _633
REMARK  269  A    between atoms: _638  and  _640
REMARK  270  A    between atoms: _640  and  _641
REMARK  271  A    between atoms: _640  and  _643
REMARK  272  A    between atoms: _643  and  _644
REMARK  273  A    between atoms: _644  and  _645
REMARK  274  A    between atoms: _648  and  _650
REMARK  275  A    between atoms: _650  and  _651
REMARK  276  A    between atoms: _650  and  _653
REMARK  277  A    between atoms: _653  and  _654
REMARK  278  A    between atoms: _659  and  _660
REMARK  279  A    between atoms: _662  and  _664
REMARK  280  A    between atoms: _664  and  _665
REMARK  281  A    between atoms: _664  and  _667
REMARK  282  A    between atoms: _670  and  _672
REMARK  283  A    between atoms: _672  and  _673
REMARK  284  A    between atoms: _672  and  _675
REMARK  285  A    between atoms: _675  and  _676
REMARK  286  A    between atoms: _679  and  _681
REMARK  287  A    between atoms: _681  and  _682
REMARK  288  A    between atoms: _681  and  _684
REMARK  289  A    between atoms: _684  and  _685
REMARK  290  A    between atoms: _685  and  _686
REMARK  291  A    between atoms: _689  and  _691
REMARK  292  A    between atoms: _691  and  _692
REMARK  293  A    between atoms: _694  and  _696
REMARK  294  A    between atoms: _696  and  _697
REMARK  295  A    between atoms: _696  and  _699
REMARK  296  A    between atoms: _699  and  _700
REMARK  297  A    between atoms: _705  and  _706
REMARK  298  A    between atoms: _709  and  _710
REMARK  299  A    between atoms: _716  and  _717
REMARK  300  A    between atoms: _722  and  _724
REMARK  301  A    between atoms: _724  and  _725
REMARK  302  A    between atoms: _724  and  _727
REMARK  303  A    between atoms: _727  and  _728
REMARK  304  A    between atoms: _734  and  _736
REMARK  305  A    between atoms: _736  and  _737
REMARK  306  A    between atoms: _736  and  _739
REMARK  307  A    between atoms: _739  and  _740
REMARK  308  A    between atoms: _746  and  _748
REMARK  309  A    between atoms: _748  and  _749
REMARK  310  A    between atoms: _752  and  _754
REMARK  311  A    between atoms: _754  and  _755
REMARK  312  A    between atoms: _754  and  _757
REMARK  313  A    between atoms: _757  and  _758
REMARK                            x       y       z     vdW  Elec       q    Type
REMARK                         _______ _______ _______ _____ _____    ______ ____
ROOT
ATOM      1  C   VAL A   1      22.220  21.956  14.992  0.00  0.00    +0.238 C 
ATOM      2  N   LEU A   2      21.909  20.935  15.800  0.00  0.00    -0.298 N 
ATOM      3  H   LEU A   2      22.667  20.314  16.148  0.00  0.00    +0.150 HD
ATOM      4  O   VAL A   1      21.377  22.762  14.552  0.00  0.00    -0.274 OA
ENDROOT
BRANCH   1   5
ATOM      5  CA  VAL A   1      23.700  22.105  14.622  0.00  0.00    +0.145 C 
BRANCH   5   6
ATOM      6  CB  VAL A   1      24.080  21.042  13.559  0.00  0.00    +0.025 C 
ATOM      7  CG2 VAL A   1      25.570  21.150  13.184  0.00  0.00    +0.002 C 
ATOM      8  CG1 VAL A   1      23.216  21.209  12.305  0.00  0.00    +0.002 C 
ENDBRANCH   5   6
BRANCH   5   9
ATOM      9  N   VAL A   1      24.563  22.027  15.813  0.00  0.00    -0.238 NA
ATOM     10  H   VAL A   1      25.300  21.295  15.863  0.00  0.00    +0.142 HD
ENDBRANCH   5   9
ENDBRANCH   1   5
BRANCH   2  11
ATOM     11  CA  LEU A   2      20.524  20.670  16.207  0.00  0.00    +0.137 C 
BRANCH  11  12
ATOM     12  C   LEU A   2      19.876  21.854  16.947  0.00  0.00    +0.227 C 
ATOM     13  O   LEU A   2      18.740  22.228  16.646  0.00  0.00    -0.286 OA
ENDBRANCH  11  12
BRANCH  11  14
ATOM     14  CB  LEU A   2      20.422  19.400  17.070  0.00  0.00    +0.028 C 
BRANCH  14  15
ATOM     15  CG  LEU A   2      18.993  19.092  17.594  0.00  0.00    +0.002 C 
ATOM     16  CD2 LEU A   2      18.983  18.103  18.754  0.00  0.00    +0.000 C 
ATOM     17  CD1 LEU A   2      18.072  18.624  16.477  0.00  0.00    +0.000 C 
ENDBRANCH  14  15
ENDBRANCH  11  14
ENDBRANCH   2  11
TORSDOF 7
REMARK  Name = ../refined-set-2016/3ag9/3ag9_pocket.pdb
REMARK  313 active torsions:
REMARK  status: ('A' for Active; 'I' for Inactive)
REMARK    1  A    between atoms: _1  and  _3
REMARK    2  A    between atoms: _3  and  _4
REMARK    3  A    between atoms: _3  and  _6
REMARK    4  A    between atoms: _6  and  _7
REMARK    5  A    between atoms: _10  and  _12
REMARK    6  A    between atoms: _12  and  _13
REMARK    7  A    between atoms: _12  and  _15
REMARK    8  A    between atoms: _15  and  _16
REMARK    9  A    between atoms: _19  and  _21
REMARK   10  A    between atoms: _21  and  _22
REMARK   11  A    between atoms: _24  and  _26
REMARK   12  A    between atoms: _26  and  _27
REMARK   13  A    between atoms: _26  and  _29
REMARK   14  A    between atoms: _29  and  _30
REMARK   15  A    between atoms: _33  and  _35
REMARK   16  A    between atoms: _35  and  _36
REMARK   17  A    between atoms: _38  and  _40
REMARK   18  A    between atoms: _40  and  _41
REMARK   19  A    between atoms: _40  and  _43
REMARK   20  A    between atoms: _43  and  _44
REMARK   21  A    between atoms: _46  and  _48
REMARK   22  A    between atoms: _48  and  _49
REMARK   23  A    between atoms: _48  and  _51
REMARK   24  A    between atoms: _51  and  _52
REMARK   25  A    between atoms: _58  and  _60
REMARK   26  A    between atoms: _60  and  _61
REMARK   27  A    between atoms: _63  and  _65
REMARK   28  A    between atoms: _65  and  _66
REMARK   29  A    between atoms: _65  and  _68
REMARK   30  A    between atoms: _68  and  _69
REMARK   31  A    between atoms: _69  and  _70
REMARK   32  A    between atoms: _70  and  _71
REMARK   33  A    between atoms: _80  and  _82
REMARK   34  A    between atoms: _82  and  _83
REMARK   35  A    between atoms: _82  and  _85
REMARK   36  A    between atoms: _88  and  _90
REMARK   37  A    between atoms: _90  and  _91
REMARK   38  A    between atoms: _90  and  _93
REMARK   39  A    between atoms: _93  and  _94
REMARK   40  A    between atoms: _94  and  _95
REMARK   41  A    between atoms: _97  and  _99
REMARK   42  A    between atoms: _99  and  _100
REMARK   43  A    between atoms: _99  and  _102
REMARK   44  A    between atoms: _102  and  _103
REMARK   45  A    between atoms: _106  and  _108
REMARK   46  A    between atoms: _108  and  _109
REMARK   47  A    between atoms: _108  and  _111
REMARK   48  A    between atoms: _111  and  _112
REMARK   49  A    between atoms: _117  and  _118
REMARK   50  A    between atoms: _120  and  _122
REMARK   51  A    between atoms: _122  and  _123
REMARK   52  A    between atoms: _126  and  _128
REMARK   53  A    between atoms: _128  and  _129
REMARK   54  A    between atoms: _128  and  _131
REMARK   55  A    between atoms: _131  and  _132
REMARK   56  A    between atoms: _132  and  _133
REMARK   57  A    between atoms: _135  and  _137
REMARK   58  A    between atoms: _137  and  _138
REMARK   59  A    between atoms: _137  and  _140
REMARK   60  A    between atoms: _140  and  _141
REMARK   61  A    between atoms: _141  and  _142
REMARK   62  A    between atoms: _142  and  _143
REMARK   63  A    between atoms: _143  and  _144
REMARK   64  A    between atoms: _148  and  _150
REMARK   65  A    between atoms: _150  and  _151
REMARK   66  A    between atoms: _150  and  _153
REMARK   67  A    between atoms: _153  and  _154
REMARK   68  A    between atoms: _157  and  _159
REMARK   69  A    between atoms: _159  and  _160
REMARK   70  A    between atoms: _159  and  _162
REMARK   71  A    between atoms: _162  and  _163
REMARK   72  A    between atoms: _166  and  _168
REMARK   73  A    between atoms: _168  and  _169
REMARK   74  A    between atoms: _168  and  _171
REMARK   75  A    between atoms: _171  and  _172
REMARK   76  A    between atoms: _175  and  _177
REMARK   77  A    between atoms: _177  and  _178
REMARK   78  A    between atoms: _177  and  _180
REMARK   79  A    between atoms: _180  and  _181
REMARK   80  A    between atoms: _181  and  _182
REMARK   81  A    between atoms: _182  and  _183
REMARK   82  A    between atoms: _183  and  _184
REMARK   83  A    between atoms: _188  and  _190
REMARK   84  A    between atoms: _190  and  _191
REMARK   85  A    between atoms: _190  and  _193
REMARK   86  A    between atoms: _196  and  _198
REMARK   87  A    between atoms: _198  and  _199
REMARK   88  A    between atoms: _198  and  _201
REMARK   89  A    between atoms: _201  and  _202
REMARK   90  A    between atoms: _205  and  _207
REMARK   91  A    between atoms: _207  and  _208
REMARK   92  A    between atoms: _207  and  _210
REMARK   93  A    between atoms: _210  and  _211
REMARK   94  A    between atoms: _211  and  _212
REMARK   95  A    between atoms: _217  and  _219
REMARK   96  A    between atoms: _219  and  _220
REMARK   97  A    between atoms: _219  and  _222
REMARK   98  A    between atoms: _222  and  _223
REMARK   99  A    between atoms: _228  and  _230
REMARK  100  A    between atoms: _230  and  _231
REMARK  101  A    between atoms: _230  and  _233
REMARK  102  A    between atoms: _233  and  _234
REMARK  103  A    between atoms: _237  and  _239
REMARK  104  A    between atoms: _239  and  _240
REMARK  105  A    between atoms: _239  and  _242
REMARK  106  A    between atoms: _242  and  _243
REMARK  107  A    between atoms: _243  and  _244
REMARK  108  A    between atoms: _247  and  _249
REMARK  109  A    between atoms: _249  and  _250
REMARK  110  A    between atoms: _249  and  _252
REMARK  111  A    between atoms: _255  and  _257
REMARK  112  A    between atoms: _257  and  _258
REMARK  113  A    between atoms: _257  and  _260
REMARK  114  A    between atoms: _260  and  _261
REMARK  115  A    between atoms: _261  and  _262
REMARK  116  A    between atoms: _262  and  _263
REMARK  117  A    between atoms: _263  and  _264
REMARK  118  A    between atoms: _268  and  _270
REMARK  119  A    between atoms: _270  and  _271
REMARK  120  A    between atoms: _270  and  _273
REMARK  121  A    between atoms: _273  and  _274
REMARK  122  A    between atoms: _277  and  _279
REMARK  123  A    between atoms: _279  and  _280
REMARK  124  A    between atoms: _279  and  _282
REMARK  125  A    between atoms: _282  and  _283
REMARK  126  A    between atoms: _283  and  _284
REMARK  127  A    between atoms: _286  and  _288
REMARK  128  A    between atoms: _288  and  _289
REMARK  129  A    between atoms: _288  and  _291
REMARK  130  A    between atoms: _294  and  _296
REMARK  131  A    between atoms: _296  and  _297
REMARK  132  A    between atoms: _296  and  _299
REMARK  133  A    between atoms: _299  and  _300
REMARK  134  A    between atoms: _300  and  _301
REMARK  135  A    between atoms: _303  and  _305
REMARK  136  A    between atoms: _305  and  _306
REMARK  137  A    between atoms: _305  and  _308
REMARK  138  A    between atoms: _308  and  _309
REMARK  139  A    between atoms: _309  and  _310
REMARK  140  A    between atoms: _313  and  _315
REMARK  141  A    between atoms: _315  and  _316
REMARK  142  A    between atoms: _315  and  _318
REMARK  143  A    between atoms: _318  and  _319
REMARK  144  A    between atoms: _324  and  _325
REMARK  145  A    between atoms: _327  and  _329
REMARK  146  A    between atoms: _329  and  _330
REMARK  147  A    between atoms: _329  and  _332
REMARK  148  A    between atoms: _336  and  _337
REMARK  149  A    between atoms: _342  and  _344
REMARK  150  A    between atoms: _344  and  _345
REMARK  151  A    between atoms: _347  and  _349
REMARK  152  A    between atoms: _349  and  _350
REMARK  153  A    between atoms: _352  and  _354
REMARK  154  A    between atoms: _354  and  _355
REMARK  155  A    between atoms: _354  and  _357
REMARK  156  A    between atoms: _357  and  _358
REMARK  157  A    between atoms: _358  and  _359
REMARK  158  A    between atoms: _362  and  _364
REMARK  159  A    between atoms: _364  and  _365
REMARK  160  A    between atoms: _364  and  _367
REMARK  161  A    between atoms: _367  and  _368
REMARK  162  A    between atoms: _368  and  _369
REMARK  163  A    between atoms: _371  and  _373
REMARK  164  A    between atoms: _373  and  _374
REMARK  165  A    between atoms: _373  and  _376
REMARK  166  A    between atoms: _376  and  _377
REMARK  167  A    between atoms: _383  and  _385
REMARK  168  A    between atoms: _385  and  _386
REMARK  169  A    between atoms: _385  and  _388
REMARK  170  A    between atoms: _388  and  _389
REMARK  171  A    between atoms: _391  and  _393
REMARK  172  A    between atoms: _393  and  _394
REMARK  173  A    between atoms: _393  and  _396
REMARK  174  A    between atoms: _396  and  _397
REMARK  175  A    between atoms: _400  and  _402
REMARK  176  A    between atoms: _402  and  _403
REMARK  177  A    between atoms: _402  and  _405
REMARK  178  A    between atoms: _405  and  _406
REMARK  179  A    between atoms: _406  and  _407
REMARK  180  A    between atoms: _407  and  _408
REMARK  181  A    between atoms: _417  and  _419
REMARK  182  A    between atoms: _419  and  _420
REMARK  183  A    between atoms: _419  and  _422
REMARK  184  A    between atoms: _422  and  _423
REMARK  185  A    between atoms: _428  and  _429
REMARK  186  A    between atoms: _431  and  _433
REMARK  187  A    between atoms: _433  and  _434
REMARK  188  A    between atoms: _433  and  _436
REMARK  189  A    between atoms: _436  and  _437
REMARK  190  A    between atoms: _437  and  _438
REMARK  191  A    between atoms: _438  and  _439
REMARK  192  A    between atoms: _448  and  _450
REMARK  193  A    between atoms: _450  and  _451
REMARK  194  A    between atoms: _450  and  _453
REMARK  195  A    between atoms: _453  and  _454
REMARK  196  A    between atoms: _457  and  _459
REMARK  197  A    between atoms: _459  and  _460
REMARK  198  A    between atoms: _459  and  _462
REMARK  199  A    between atoms: _462  and  _463
REMARK  200  A    between atoms: _466  and  _468
REMARK  201  A    between atoms: _468  and  _469
REMARK  202  A    between atoms: _468  and  _471
REMARK  203  A    between atoms: _471  and  _472
REMARK  204  A    between atoms: _472  and  _473
REMARK  205  A    between atoms: _473  and  _474
REMARK  206  A    between atoms: _474  and  _475
REMARK  207  A    between atoms: _480  and  _481
REMARK  208  A    between atoms: _486  and  _488
REMARK  209  A    between atoms: _488  and  _489
REMARK  210  A    between atoms: _488  and  _491
REMARK  211  A    between atoms: _491  and  _492
REMARK  212  A    between atoms: _492  and  _493
REMARK  213  A    between atoms: _496  and  _498
REMARK  214  A    between atoms: _498  and  _499
REMARK  215  A    between atoms: _498  and  _501
REMARK  216  A    between atoms: _501  and  _502
REMARK  217  A    between atoms: _507  and  _509
REMARK  218  A    between atoms: _509  and  _510
REMARK  219  A    between atoms: _509  and  _512
REMARK  220  A    between atoms: _512  and  _513
REMARK  221  A    between atoms: _516  and  _518
REMARK  222  A    between atoms: _518  and  _519
REMARK  223  A    between atoms: _518  and  _521
REMARK  224  A    between atoms: _521  and  _522
REMARK  225  A    between atoms: _525  and  _527
REMARK  226  A    between atoms: _527  and  _528
REMARK  227  A    between atoms: _527  and  _530
REMARK  228  A    between atoms: _530  and  _531
REMARK  229  A    between atoms: _534  and  _536
REMARK  230  A    between atoms: _536  and  _537
REMARK  231  A    between atoms: _536  and  _539
REMARK  232  A    between atoms: _539  and  _540
REMARK  233  A    between atoms: _543  and  _545
REMARK  234  A    between atoms: _545  and  _546
REMARK  235  A    between atoms: _545  and  _548
REMARK  236  A    between atoms: _548  and  _549
REMARK  237  A    between atoms: _549  and  _550
REMARK  238  A    between atoms: _555  and  _557
REMARK  239  A    between atoms: _557  and  _558
REMARK  240  A    between atoms: _557  and  _560
REMARK  241  A    between atoms: _563  and  _565
REMARK  242  A    between atoms: _565  and  _566
REMARK  243  A    between atoms: _565  and  _568
REMARK  244  A    between atoms: _568  and  _569
REMARK  245  A    between atoms: _572  and  _574
REMARK  246  A    between atoms: _574  and  _575
REMARK  247  A    between atoms: _574  and  _577
REMARK  248  A    between atoms: _577  and  _578
REMARK  249  A    between atoms: _581  and  _583
REMARK  250  A    between atoms: _583  and  _584
REMARK  251  A    between atoms: _583  and  _586
REMARK  252  A    between atoms: _586  and  _587
REMARK  253  A    between atoms: _593  and  _595
REMARK  254  A    between atoms: _595  and  _596
REMARK  255  A    between atoms: _598  and  _600
REMARK  256  A    between atoms: _600  and  _601
REMARK  257  A    between atoms: _600  and  _603
REMARK  258  A    between atoms: _603  and  _604
REMARK  259  A    between atoms: _610  and  _612
REMARK  260  A    between atoms: _612  and  _613
REMARK  261  A    between atoms: _612  and  _615
REMARK  262  A    between atoms: _617  and  _619
REMARK  263  A    between atoms: _619  and  _620
REMARK  264  A    between atoms: _622  and  _624
REMARK  265  A    between atoms: _624  and  _625
REMARK  266  A    between atoms: _624  and  _627
REMARK  267  A    between atoms: _627  and  _628
REMARK  268  A    between atoms: _632  and  _633
REMARK  269  A    between atoms: _638  and  _640
REMARK  270  A    between atoms: _640  and  _641
REMARK  271  A    between atoms: _640  and  _643
REMARK  272  A    between atoms: _643  and  _644
REMARK  273  A    between atoms: _644  and  _645
REMARK  274  A    between atoms: _648  and  _650
REMARK  275  A    between atoms: _650  and  _651
REMARK  276  A    between atoms: _650  and  _653
REMARK  277  A    between atoms: _653  and  _654
REMARK  278  A    between atoms: _659  and  _660
REMARK  279  A    between atoms: _662  and  _664
REMARK  280  A    between atoms: _664  and  _665
REMARK  281  A    between atoms: _664  and  _667
REMARK  282  A    between atoms: _670  and  _672
REMARK  283  A    between atoms: _672  and  _673
REMARK  284  A    between atoms: _672  and  _675
REMARK  285  A    between atoms: _675  and  _676
REMARK  286  A    between atoms: _679  and  _681
REMARK  287  A    between atoms: _681  and  _682
REMARK  288  A    between atoms: _681  and  _684
REMARK  289  A    between atoms: _684  and  _685
REMARK  290  A    between atoms: _685  and  _686
REMARK  291  A    between atoms: _689  and  _691
REMARK  292  A    between atoms: _691  and  _692
REMARK  293  A    between atoms: _694  and  _696
REMARK  294  A    between atoms: _696  and  _697
REMARK  295  A    between atoms: _696  and  _699
REMARK  296  A    between atoms: _699  and  _700
REMARK  297  A    between atoms: _705  and  _706
REMARK  298  A    between atoms: _709  and  _710
REMARK  299  A    between atoms: _716  and  _717
REMARK  300  A    between atoms: _722  and  _724
REMARK  301  A    between atoms: _724  and  _725
REMARK  302  A    between atoms: _724  and  _727
REMARK  303  A    between atoms: _727  and  _728
REMARK  304  A    between atoms: _734  and  _736
REMARK  305  A    between atoms: _736  and  _737
REMARK  306  A    between atoms: _736  and  _739
REMARK  307  A    between atoms: _739  and  _740
REMARK  308  A    between atoms: _746  and  _748
REMARK  309  A    between atoms: _748  and  _749
REMARK  310  A    between atoms: _752  and  _754
REMARK  311  A    between atoms: _754  and  _755
REMARK  312  A    between atoms: _754  and  _757
REMARK  313  A    between atoms: _757  and  _758
REMARK                            x       y       z     vdW  Elec       q    Type
REMARK                         _______ _______ _______ _____ _____    ______ ____
ROOT
ATOM      1  CA  GLU A   1      18.067  24.368  13.734  0.00  0.00    +0.134 C 
ENDROOT
BRANCH   1   2
ATOM      2  N   GLU A   1      19.189  24.636  14.627  0.00  0.00    -0.239 NA
ATOM      3  H   GLU A   1      19.854  23.872  14.864  0.00  0.00    +0.142 HD
ENDBRANCH   1   2
BRANCH   1   4
ATOM      4  C   GLU A   1      16.736  24.469  14.492  0.00  0.00    +0.224 C 
ATOM      5  O   GLU A   1      15.788  25.041  13.983  0.00  0.00    -0.287 OA
ENDBRANCH   1   4
BRANCH   1   6
ATOM      6  CB  GLU A   1      18.205  23.016  13.015  0.00  0.00    +0.037 C 
BRANCH   6   7
ATOM      7  CG  GLU A   1      17.103  22.788  11.959  0.00  0.00    +0.116 C 
BRANCH   7   8
ATOM      8  CD  GLU A   1      17.261  21.493  11.130  0.00  0.00    +0.365 C 
ATOM      9  OE2 GLU A   1      18.154  20.669  11.405  0.00  0.00    -0.246 OA
ATOM     10  OE1 GLU A   1      16.460  21.299  10.198  0.00  0.00    -0.246 OA
ENDBRANCH   7   8
ENDBRANCH   6   7
ENDBRANCH   1   6
TORSDOF 5
REMARK  Name = ../refined-set-2016/3ag9/3ag9_pocket.pdb
REMARK  313 active torsions:
REMARK  status: ('A' for Active; 'I' for Inactive)
REMARK    1  A    between atoms: _1  and  _3
REMARK    2  A    between atoms: _3  and  _4
REMARK    3  A    between atoms: _3  and  _6
REMARK    4  A    between atoms: _6  and  _7
REMARK    5  A    between atoms: _10  and  _12
REMARK    6  A    between atoms: _12  and  _13
REMARK    7  A    between atoms: _12  and  _15
REMARK    8  A    between atoms: _15  and  _16
REMARK    9  A    between atoms: _19  and  _21
REMARK   10  A    between atoms: _21  and  _22
REMARK   11  A    between atoms: _24  and  _26
REMARK   12  A    between atoms: _26  and  _27
REMARK   13  A    between atoms: _26  and  _29
REMARK   14  A    between atoms: _29  and  _30
REMARK   15  A    between atoms: _33  and  _35
REMARK   16  A    between atoms: _35  and  _36
REMARK   17  A    between atoms: _38  and  _40
REMARK   18  A    between atoms: _40  and  _41
REMARK   19  A    between atoms: _40  and  _43
REMARK   20  A    between atoms: _43  and  _44
REMARK   21  A    between atoms: _46  and  _48
REMARK   22  A    between atoms: _48  and  _49
REMARK   23  A    between atoms: _48  and  _51
REMARK   24  A    between atoms: _51  and  _52
REMARK   25  A    between atoms: _58  and  _60
REMARK   26  A    between atoms: _60  and  _61
REMARK   27  A    between atoms: _63  and  _65
REMARK   28  A    between atoms: _65  and  _66
REMARK   29  A    between atoms: _65  and  _68
REMARK   30  A    between atoms: _68  and  _69
REMARK   31  A    between atoms: _69  and  _70
REMARK   32  A    between atoms: _70  and  _71
REMARK   33  A    between atoms: _80  and  _82
REMARK   34  A    between atoms: _82  and  _83
REMARK   35  A    between atoms: _82  and  _85
REMARK   36  A    between atoms: _88  and  _90
REMARK   37  A    between atoms: _90  and  _91
REMARK   38  A    between atoms: _90  and  _93
REMARK   39  A    between atoms: _93  and  _94
REMARK   40  A    between atoms: _94  and  _95
REMARK   41  A    between atoms: _97  and  _99
REMARK   42  A    between atoms: _99  and  _100
REMARK   43  A    between atoms: _99  and  _102
REMARK   44  A    between atoms: _102  and  _103
REMARK   45  A    between atoms: _106  and  _108
REMARK   46  A    between atoms: _108  and  _109
REMARK   47  A    between atoms: _108  and  _111
REMARK   48  A    between atoms: _111  and  _112
REMARK   49  A    between atoms: _117  and  _118
REMARK   50  A    between atoms: _120  and  _122
REMARK   51  A    between atoms: _122  and  _123
REMARK   52  A    between atoms: _126  and  _128
REMARK   53  A    between atoms: _128  and  _129
REMARK   54  A    between atoms: _128  and  _131
REMARK   55  A    between atoms: _131  and  _132
REMARK   56  A    between atoms: _132  and  _133
REMARK   57  A    between atoms: _135  and  _137
REMARK   58  A    between atoms: _137  and  _138
REMARK   59  A    between atoms: _137  and  _140
REMARK   60  A    between atoms: _140  and  _141
REMARK   61  A    between atoms: _141  and  _142
REMARK   62  A    between atoms: _142  and  _143
REMARK   63  A    between atoms: _143  and  _144
REMARK   64  A    between atoms: _148  and  _150
REMARK   65  A    between atoms: _150  and  _151
REMARK   66  A    between atoms: _150  and  _153
REMARK   67  A    between atoms: _153  and  _154
REMARK   68  A    between atoms: _157  and  _159
REMARK   69  A    between atoms: _159  and  _160
REMARK   70  A    between atoms: _159  and  _162
REMARK   71  A    between atoms: _162  and  _163
REMARK   72  A    between atoms: _166  and  _168
REMARK   73  A    between atoms: _168  and  _169
REMARK   74  A    between atoms: _168  and  _171
REMARK   75  A    between atoms: _171  and  _172
REMARK   76  A    between atoms: _175  and  _177
REMARK   77  A    between atoms: _177  and  _178
REMARK   78  A    between atoms: _177  and  _180
REMARK   79  A    between atoms: _180  and  _181
REMARK   80  A    between atoms: _181  and  _182
REMARK   81  A    between atoms: _182  and  _183
REMARK   82  A    between atoms: _183  and  _184
REMARK   83  A    between atoms: _188  and  _190
REMARK   84  A    between atoms: _190  and  _191
REMARK   85  A    between atoms: _190  and  _193
REMARK   86  A    between atoms: _196  and  _198
REMARK   87  A    between atoms: _198  and  _199
REMARK   88  A    between atoms: _198  and  _201
REMARK   89  A    between atoms: _201  and  _202
REMARK   90  A    between atoms: _205  and  _207
REMARK   91  A    between atoms: _207  and  _208
REMARK   92  A    between atoms: _207  and  _210
REMARK   93  A    between atoms: _210  and  _211
REMARK   94  A    between atoms: _211  and  _212
REMARK   95  A    between atoms: _217  and  _219
REMARK   96  A    between atoms: _219  and  _220
REMARK   97  A    between atoms: _219  and  _222
REMARK   98  A    between atoms: _222  and  _223
REMARK   99  A    between atoms: _228  and  _230
REMARK  100  A    between atoms: _230  and  _231
REMARK  101  A    between atoms: _230  and  _233
REMARK  102  A    between atoms: _233  and  _234
REMARK  103  A    between atoms: _237  and  _239
REMARK  104  A    between atoms: _239  and  _240
REMARK  105  A    between atoms: _239  and  _242
REMARK  106  A    between atoms: _242  and  _243
REMARK  107  A    between atoms: _243  and  _244
REMARK  108  A    between atoms: _247  and  _249
REMARK  109  A    between atoms: _249  and  _250
REMARK  110  A    between atoms: _249  and  _252
REMARK  111  A    between atoms: _255  and  _257
REMARK  112  A    between atoms: _257  and  _258
REMARK  113  A    between atoms: _257  and  _260
REMARK  114  A    between atoms: _260  and  _261
REMARK  115  A    between atoms: _261  and  _262
REMARK  116  A    between atoms: _262  and  _263
REMARK  117  A    between atoms: _263  and  _264
REMARK  118  A    between atoms: _268  and  _270
REMARK  119  A    between atoms: _270  and  _271
REMARK  120  A    between atoms: _270  and  _273
REMARK  121  A    between atoms: _273  and  _274
REMARK  122  A    between atoms: _277  and  _279
REMARK  123  A    between atoms: _279  and  _280
REMARK  124  A    between atoms: _279  and  _282
REMARK  125  A    between atoms: _282  and  _283
REMARK  126  A    between atoms: _283  and  _284
REMARK  127  A    between atoms: _286  and  _288
REMARK  128  A    between atoms: _288  and  _289
REMARK  129  A    between atoms: _288  and  _291
REMARK  130  A    between atoms: _294  and  _296
REMARK  131  A    between atoms: _296  and  _297
REMARK  132  A    between atoms: _296  and  _299
REMARK  133  A    between atoms: _299  and  _300
REMARK  134  A    between atoms: _300  and  _301
REMARK  135  A    between atoms: _303  and  _305
REMARK  136  A    between atoms: _305  and  _306
REMARK  137  A    between atoms: _305  and  _308
REMARK  138  A    between atoms: _308  and  _309
REMARK  139  A    between atoms: _309  and  _310
REMARK  140  A    between atoms: _313  and  _315
REMARK  141  A    between atoms: _315  and  _316
REMARK  142  A    between atoms: _315  and  _318
REMARK  143  A    between atoms: _318  and  _319
REMARK  144  A    between atoms: _324  and  _325
REMARK  145  A    between atoms: _327  and  _329
REMARK  146  A    between atoms: _329  and  _330
REMARK  147  A    between atoms: _329  and  _332
REMARK  148  A    between atoms: _336  and  _337
REMARK  149  A    between atoms: _342  and  _344
REMARK  150  A    between atoms: _344  and  _345
REMARK  151  A    between atoms: _347  and  _349
REMARK  152  A    between atoms: _349  and  _350
REMARK  153  A    between atoms: _352  and  _354
REMARK  154  A    between atoms: _354  and  _355
REMARK  155  A    between atoms: _354  and  _357
REMARK  156  A    between atoms: _357  and  _358
REMARK  157  A    between atoms: _358  and  _359
REMARK  158  A    between atoms: _362  and  _364
REMARK  159  A    between atoms: _364  and  _365
REMARK  160  A    between atoms: _364  and  _367
REMARK  161  A    between atoms: _367  and  _368
REMARK  162  A    between atoms: _368  and  _369
REMARK  163  A    between atoms: _371  and  _373
REMARK  164  A    between atoms: _373  and  _374
REMARK  165  A    between atoms: _373  and  _376
REMARK  166  A    between atoms: _376  and  _377
REMARK  167  A    between atoms: _383  and  _385
REMARK  168  A    between atoms: _385  and  _386
REMARK  169  A    between atoms: _385  and  _388
REMARK  170  A    between atoms: _388  and  _389
REMARK  171  A    between atoms: _391  and  _393
REMARK  172  A    between atoms: _393  and  _394
REMARK  173  A    between atoms: _393  and  _396
REMARK  174  A    between atoms: _396  and  _397
REMARK  175  A    between atoms: _400  and  _402
REMARK  176  A    between atoms: _402  and  _403
REMARK  177  A    between atoms: _402  and  _405
REMARK  178  A    between atoms: _405  and  _406
REMARK  179  A    between atoms: _406  and  _407
REMARK  180  A    between atoms: _407  and  _408
REMARK  181  A    between atoms: _417  and  _419
REMARK  182  A    between atoms: _419  and  _420
REMARK  183  A    between atoms: _419  and  _422
REMARK  184  A    between atoms: _422  and  _423
REMARK  185  A    between atoms: _428  and  _429
REMARK  186  A    between atoms: _431  and  _433
REMARK  187  A    between atoms: _433  and  _434
REMARK  188  A    between atoms: _433  and  _436
REMARK  189  A    between atoms: _436  and  _437
REMARK  190  A    between atoms: _437  and  _438
REMARK  191  A    between atoms: _438  and  _439
REMARK  192  A    between atoms: _448  and  _450
REMARK  193  A    between atoms: _450  and  _451
REMARK  194  A    between atoms: _450  and  _453
REMARK  195  A    between atoms: _453  and  _454
REMARK  196  A    between atoms: _457  and  _459
REMARK  197  A    between atoms: _459  and  _460
REMARK  198  A    between atoms: _459  and  _462
REMARK  199  A    between atoms: _462  and  _463
REMARK  200  A    between atoms: _466  and  _468
REMARK  201  A    between atoms: _468  and  _469
REMARK  202  A    between atoms: _468  and  _471
REMARK  203  A    between atoms: _471  and  _472
REMARK  204  A    between atoms: _472  and  _473
REMARK  205  A    between atoms: _473  and  _474
REMARK  206  A    between atoms: _474  and  _475
REMARK  207  A    between atoms: _480  and  _481
REMARK  208  A    between atoms: _486  and  _488
REMARK  209  A    between atoms: _488  and  _489
REMARK  210  A    between atoms: _488  and  _491
REMARK  211  A    between atoms: _491  and  _492
REMARK  212  A    between atoms: _492  and  _493
REMARK  213  A    between atoms: _496  and  _498
REMARK  214  A    between atoms: _498  and  _499
REMARK  215  A    between atoms: _498  and  _501
REMARK  216  A    between atoms: _501  and  _502
REMARK  217  A    between atoms: _507  and  _509
REMARK  218  A    between atoms: _509  and  _510
REMARK  219  A    between atoms: _509  and  _512
REMARK  220  A    between atoms: _512  and  _513
REMARK  221  A    between atoms: _516  and  _518
REMARK  222  A    between atoms: _518  and  _519
REMARK  223  A    between atoms: _518  and  _521
REMARK  224  A    between atoms: _521  and  _522
REMARK  225  A    between atoms: _525  and  _527
REMARK  226  A    between atoms: _527  and  _528
REMARK  227  A    between atoms: _527  and  _530
REMARK  228  A    between atoms: _530  and  _531
REMARK  229  A    between atoms: _534  and  _536
REMARK  230  A    between atoms: _536  and  _537
REMARK  231  A    between atoms: _536  and  _539
REMARK  232  A    between atoms: _539  and  _540
REMARK  233  A    between atoms: _543  and  _545
REMARK  234  A    between atoms: _545  and  _546
REMARK  235  A    between atoms: _545  and  _548
REMARK  236  A    between atoms: _548  and  _549
REMARK  237  A    between atoms: _549  and  _550
REMARK  238  A    between atoms: _555  and  _557
REMARK  239  A    between atoms: _557  and  _558
REMARK  240  A    between atoms: _557  and  _560
REMARK  241  A    between atoms: _563  and  _565
REMARK  242  A    between atoms: _565  and  _566
REMARK  243  A    between atoms: _565  and  _568
REMARK  244  A    between atoms: _568  and  _569
REMARK  245  A    between atoms: _572  and  _574
REMARK  246  A    between atoms: _574  and  _575
REMARK  247  A    between atoms: _574  and  _577
REMARK  248  A    between atoms: _577  and  _578
REMARK  249  A    between atoms: _581  and  _583
REMARK  250  A    between atoms: _583  and  _584
REMARK  251  A    between atoms: _583  and  _586
REMARK  252  A    between atoms: _586  and  _587
REMARK  253  A    between atoms: _593  and  _595
REMARK  254  A    between atoms: _595  and  _596
REMARK  255  A    between atoms: _598  and  _600
REMARK  256  A    between atoms: _600  and  _601
REMARK  257  A    between atoms: _600  and  _603
REMARK  258  A    between atoms: _603  and  _604
REMARK  259  A    between atoms: _610  and  _612
REMARK  260  A    between atoms: _612  and  _613
REMARK  261  A    between atoms: _612  and  _615
REMARK  262  A    between atoms: _617  and  _619
REMARK  263  A    between atoms: _619  and  _620
REMARK  264  A    between atoms: _622  and  _624
REMARK  265  A    between atoms: _624  and  _625
REMARK  266  A    between atoms: _624  and  _627
REMARK  267  A    between atoms: _627  and  _628
REMARK  268  A    between atoms: _632  and  _633
REMARK  269  A    between atoms: _638  and  _640
REMARK  270  A    between atoms: _640  and  _641
REMARK  271  A    between atoms: _640  and  _643
REMARK  272  A    between atoms: _643  and  _644
REMARK  273  A    between atoms: _644  and  _645
REMARK  274  A    between atoms: _648  and  _650
REMARK  275  A    between atoms: _650  and  _651
REMARK  276  A    between atoms: _650  and  _653
REMARK  277  A    between atoms: _653  and  _654
REMARK  278  A    between atoms: _659  and  _660
REMARK  279  A    between atoms: _662  and  _664
REMARK  280  A    between atoms: _664  and  _665
REMARK  281  A    between atoms: _664  and  _667
REMARK  282  A    between atoms: _670  and  _672
REMARK  283  A    between atoms: _672  and  _673
REMARK  284  A    between atoms: _672  and  _675
REMARK  285  A    between atoms: _675  and  _676
REMARK  286  A    between atoms: _679  and  _681
REMARK  287  A    between atoms: _681  and  _682
REMARK  288  A    between atoms: _681  and  _684
REMARK  289  A    between atoms: _684  and  _685
REMARK  290  A    between atoms: _685  and  _686
REMARK  291  A    between atoms: _689  and  _691
REMARK  292  A    between atoms: _691  and  _692
REMARK  293  A    between atoms: _694  and  _696
REMARK  294  A    between atoms: _696  and  _697
REMARK  295  A    between atoms: _696  and  _699
REMARK  296  A    between atoms: _699  and  _700
REMARK  297  A    between atoms: _705  and  _706
REMARK  298  A    between atoms: _709  and  _710
REMARK  299  A    between atoms: _716  and  _717
REMARK  300  A    between atoms: _722  and  _724
REMARK  301  A    between atoms: _724  and  _725
REMARK  302  A    between atoms: _724  and  _727
REMARK  303  A    between atoms: _727  and  _728
REMARK  304  A    between atoms: _734  and  _736
REMARK  305  A    between atoms: _736  and  _737
REMARK  306  A    between atoms: _736  and  _739
REMARK  307  A    between atoms: _739  and  _740
REMARK  308  A    between atoms: _746  and  _748
REMARK  309  A    between atoms: _748  and  _749
REMARK  310  A    between atoms: _752  and  _754
REMARK  311  A    between atoms: _754  and  _755
REMARK  312  A    between atoms: _754  and  _757
REMARK  313  A    between atoms: _757  and  _758
REMARK                            x       y       z     vdW  Elec       q    Type
REMARK                         _______ _______ _______ _____ _____    ______ ____
ROOT
ATOM      1  C   PRO A   4      24.216  26.696   9.013  0.00  0.00    +0.241 C 
ATOM      2  O   PRO A   4      24.639  27.733   8.503  0.00  0.00    -0.273 OA
ATOM      3  N   PHE A   5      24.418  25.481   8.501  0.00  0.00    -0.297 N 
ATOM      4  H   PHE A   5      24.037  24.655   9.005  0.00  0.00    +0.150 HD
ENDROOT
BRANCH   1  10
ATOM      5  C   PRO A   3      21.338  25.645   9.777  0.00  0.00    +0.244 C 
ATOM      6  N   PRO A   4      22.472  25.688  10.507  0.00  0.00    -0.272 N 
ATOM      7  CD  PRO A   4      22.879  24.783  11.599  0.00  0.00    +0.094 C 
ATOM      8  CG  PRO A   4      24.293  25.194  11.881  0.00  0.00    +0.024 C 
ATOM      9  CB  PRO A   4      24.335  26.669  11.520  0.00  0.00    +0.031 C 
ATOM     10  CA  PRO A   4      23.412  26.782  10.316  0.00  0.00    +0.152 C 
ATOM     11  O   PRO A   3      21.085  26.457   8.892  0.00  0.00    -0.273 OA
BRANCH   5  15
ATOM     12  C   TYR A   2      18.179  25.700  10.141  0.00  0.00    +0.244 C 
ATOM     13  O   TYR A   2      18.519  26.339  11.128  0.00  0.00    -0.273 OA
ATOM     14  N   PRO A   3      19.007  24.817   9.526  0.00  0.00    -0.272 N 
ATOM     15  CA  PRO A   3      20.329  24.539  10.097  0.00  0.00    +0.152 C 
ATOM     16  CB  PRO A   3      20.714  23.213   9.443  0.00  0.00    +0.031 C 
ATOM     17  CG  PRO A   3      20.044  23.254   8.114  0.00  0.00    +0.024 C 
ATOM     18  CD  PRO A   3      18.767  24.025   8.302  0.00  0.00    +0.094 C 
BRANCH  12  19
ATOM     19  CA  TYR A   2      16.760  25.888   9.578  0.00  0.00    +0.153 C 
BRANCH  19  21
ATOM     20  C   GLY A   1      14.584  26.163  10.717  0.00  0.00    +0.240 C 
ATOM     21  N   TYR A   2      15.900  26.345  10.680  0.00  0.00    -0.297 N 
ATOM     22  H   TYR A   2      16.348  26.840  11.477  0.00  0.00    +0.150 HD
ATOM     23  O   GLY A   1      13.965  25.579   9.829  0.00  0.00    -0.274 OA
BRANCH  20  24
ATOM     24  CA  GLY A   1      13.857  26.718  11.936  0.00  0.00    +0.169 C 
BRANCH  24  25
ATOM     25  N   GLY A   1      14.769  27.303  12.929  0.00  0.00    -0.236 NA
ATOM     26  H   GLY A   1      15.258  26.674  13.597  0.00  0.00    +0.142 HD
ENDBRANCH  24  25
ENDBRANCH  20  24
ENDBRANCH  19  21
BRANCH  19  27
ATOM     27  CB  TYR A   2      16.761  26.923   8.430  0.00  0.00    +0.055 C 
BRANCH  27  28
ATOM     28  CG  TYR A   2      16.994  28.358   8.866  0.00  0.00    -0.020 A 
ATOM     29  CD2 TYR A   2      15.915  29.214   9.134  0.00  0.00    -0.001 A 
ATOM     30  CE2 TYR A   2      16.123  30.532   9.540  0.00  0.00    +0.036 A 
ATOM     31  CZ  TYR A   2      17.425  31.006   9.674  0.00  0.00    +0.134 A 
ATOM     32  CE1 TYR A   2      18.513  30.179   9.404  0.00  0.00    +0.036 A 
ATOM     33  CD1 TYR A   2      18.289  28.861   9.005  0.00  0.00    -0.001 A 
BRANCH  31  34
ATOM     34  OH  TYR A   2      17.652  32.310  10.065  0.00  0.00    -0.506 OA
ATOM     35  HH  TYR A   2      18.627  32.475  10.108  0.00  0.00    +0.292 HD
ENDBRANCH  31  34
ENDBRANCH  27  28
ENDBRANCH  19  27
ENDBRANCH  12  19
ENDBRANCH   5  15
ENDBRANCH   1  10
BRANCH   3  36
ATOM     36  CA  PHE A   5      25.158  25.269   7.254  0.00  0.00    +0.153 C 
BRANCH  36  37
ATOM     37  C   PHE A   5      24.279  24.592   6.229  0.00  0.00    +0.241 C 
ATOM     38  O   PHE A   5      23.971  23.397   6.332  0.00  0.00    -0.273 OA
ATOM     39  N   PHE A   6      23.856  25.371   5.239  0.00  0.00    -0.297 N 
ATOM     40  H   PHE A   6      24.222  26.341   5.158  0.00  0.00    +0.150 HD
BRANCH  39  41
ATOM     41  CA  PHE A   6      22.891  24.889   4.269  0.00  0.00    +0.153 C 
BRANCH  41  42
ATOM     42  C   PHE A   6      23.159  25.530   2.909  0.00  0.00    +0.241 C 
ATOM     43  O   PHE A   6      23.720  26.624   2.832  0.00  0.00    -0.273 OA
ATOM     44  N   ALA A   7      22.784  24.836   1.842  0.00  0.00    -0.298 N 
ATOM     45  H   ALA A   7      22.317  23.916   1.976  0.00  0.00    +0.150 HD
BRANCH  44  46
ATOM     46  CA  ALA A   7      23.010  25.330   0.478  0.00  0.00    +0.137 C 
ATOM     47  CB  ALA A   7      24.494  25.274   0.105  0.00  0.00    +0.030 C 
BRANCH  46  48
ATOM     48  C   ALA A   7      22.190  24.562  -0.533  0.00  0.00    +0.227 C 
ATOM     49  O   ALA A   7      21.598  23.531  -0.216  0.00  0.00    -0.286 OA
ENDBRANCH  46  48
ENDBRANCH  44  46
ENDBRANCH  41  42
BRANCH  41  50
ATOM     50  CB  PHE A   6      21.475  25.219   4.771  0.00  0.00    +0.055 C 
BRANCH  50  51
ATOM     51  CG  PHE A   6      20.392  24.576   3.982  0.00  0.00    -0.020 A 
ATOM     52  CD2 PHE A   6      20.424  23.202   3.724  0.00  0.00    -0.004 A 
ATOM     53  CE2 PHE A   6      19.407  22.573   2.965  0.00  0.00    -0.000 A 
ATOM     54  CZ  PHE A   6      18.344  23.336   2.472  0.00  0.00    -0.000 A 
ATOM     55  CE1 PHE A   6      18.301  24.715   2.727  0.00  0.00    -0.000 A 
ATOM     56  CD1 PHE A   6      19.334  25.331   3.487  0.00  0.00    -0.004 A 
ENDBRANCH  50  51
ENDBRANCH  41  50
ENDBRANCH  39  41
ENDBRANCH  36  37
BRANCH  36  57
ATOM     57  CB  PHE A   5      26.443  24.473   7.510  0.00  0.00    +0.055 C 
BRANCH  57  58
ATOM     58  CG  PHE A   5      27.231  24.998   8.666  0.00  0.00    -0.020 A 
ATOM     59  CD2 PHE A   5      27.237  24.323   9.874  0.00  0.00    -0.004 A 
ATOM     60  CE2 PHE A   5      27.940  24.829  10.964  0.00  0.00    -0.000 A 
ATOM     61  CZ  PHE A   5      28.619  26.009  10.854  0.00  0.00    -0.000 A 
ATOM     62  CE1 PHE A   5      28.597  26.716   9.646  0.00  0.00    -0.000 A 
ATOM     63  CD1 PHE A   5      27.902  26.204   8.569  0.00  0.00    -0.004 A 
ENDBRANCH  57  58
ENDBRANCH  36  57
ENDBRANCH   3  36
TORSDOF 19
REMARK  Name = ../refined-set-2016/3ag9/3ag9_pocket.pdb
REMARK  313 active torsions:
REMARK  status: ('A' for Active; 'I' for Inactive)
REMARK    1  A    between atoms: _1  and  _3
REMARK    2  A    between atoms: _3  and  _4
REMARK    3  A    between atoms: _3  and  _6
REMARK    4  A    between atoms: _6  and  _7
REMARK    5  A    between atoms: _10  and  _12
REMARK    6  A    between atoms: _12  and  _13
REMARK    7  A    between atoms: _12  and  _15
REMARK    8  A    between atoms: _15  and  _16
REMARK    9  A    between atoms: _19  and  _21
REMARK   10  A    between atoms: _21  and  _22
REMARK   11  A    between atoms: _24  and  _26
REMARK   12  A    between atoms: _26  and  _27
REMARK   13  A    between atoms: _26  and  _29
REMARK   14  A    between atoms: _29  and  _30
REMARK   15  A    between atoms: _33  and  _35
REMARK   16  A    between atoms: _35  and  _36
REMARK   17  A    between atoms: _38  and  _40
REMARK   18  A    between atoms: _40  and  _41
REMARK   19  A    between atoms: _40  and  _43
REMARK   20  A    between atoms: _43  and  _44
REMARK   21  A    between atoms: _46  and  _48
REMARK   22  A    between atoms: _48  and  _49
REMARK   23  A    between atoms: _48  and  _51
REMARK   24  A    between atoms: _51  and  _52
REMARK   25  A    between atoms: _58  and  _60
REMARK   26  A    between atoms: _60  and  _61
REMARK   27  A    between atoms: _63  and  _65
REMARK   28  A    between atoms: _65  and  _66
REMARK   29  A    between atoms: _65  and  _68
REMARK   30  A    between atoms: _68  and  _69
REMARK   31  A    between atoms: _69  and  _70
REMARK   32  A    between atoms: _70  and  _71
REMARK   33  A    between atoms: _80  and  _82
REMARK   34  A    between atoms: _82  and  _83
REMARK   35  A    between atoms: _82  and  _85
REMARK   36  A    between atoms: _88  and  _90
REMARK   37  A    between atoms: _90  and  _91
REMARK   38  A    between atoms: _90  and  _93
REMARK   39  A    between atoms: _93  and  _94
REMARK   40  A    between atoms: _94  and  _95
REMARK   41  A    between atoms: _97  and  _99
REMARK   42  A    between atoms: _99  and  _100
REMARK   43  A    between atoms: _99  and  _102
REMARK   44  A    between atoms: _102  and  _103
REMARK   45  A    between atoms: _106  and  _108
REMARK   46  A    between atoms: _108  and  _109
REMARK   47  A    between atoms: _108  and  _111
REMARK   48  A    between atoms: _111  and  _112
REMARK   49  A    between atoms: _117  and  _118
REMARK   50  A    between atoms: _120  and  _122
REMARK   51  A    between atoms: _122  and  _123
REMARK   52  A    between atoms: _126  and  _128
REMARK   53  A    between atoms: _128  and  _129
REMARK   54  A    between atoms: _128  and  _131
REMARK   55  A    between atoms: _131  and  _132
REMARK   56  A    between atoms: _132  and  _133
REMARK   57  A    between atoms: _135  and  _137
REMARK   58  A    between atoms: _137  and  _138
REMARK   59  A    between atoms: _137  and  _140
REMARK   60  A    between atoms: _140  and  _141
REMARK   61  A    between atoms: _141  and  _142
REMARK   62  A    between atoms: _142  and  _143
REMARK   63  A    between atoms: _143  and  _144
REMARK   64  A    between atoms: _148  and  _150
REMARK   65  A    between atoms: _150  and  _151
REMARK   66  A    between atoms: _150  and  _153
REMARK   67  A    between atoms: _153  and  _154
REMARK   68  A    between atoms: _157  and  _159
REMARK   69  A    between atoms: _159  and  _160
REMARK   70  A    between atoms: _159  and  _162
REMARK   71  A    between atoms: _162  and  _163
REMARK   72  A    between atoms: _166  and  _168
REMARK   73  A    between atoms: _168  and  _169
REMARK   74  A    between atoms: _168  and  _171
REMARK   75  A    between atoms: _171  and  _172
REMARK   76  A    between atoms: _175  and  _177
REMARK   77  A    between atoms: _177  and  _178
REMARK   78  A    between atoms: _177  and  _180
REMARK   79  A    between atoms: _180  and  _181
REMARK   80  A    between atoms: _181  and  _182
REMARK   81  A    between atoms: _182  and  _183
REMARK   82  A    between atoms: _183  and  _184
REMARK   83  A    between atoms: _188  and  _190
REMARK   84  A    between atoms: _190  and  _191
REMARK   85  A    between atoms: _190  and  _193
REMARK   86  A    between atoms: _196  and  _198
REMARK   87  A    between atoms: _198  and  _199
REMARK   88  A    between atoms: _198  and  _201
REMARK   89  A    between atoms: _201  and  _202
REMARK   90  A    between atoms: _205  and  _207
REMARK   91  A    between atoms: _207  and  _208
REMARK   92  A    between atoms: _207  and  _210
REMARK   93  A    between atoms: _210  and  _211
REMARK   94  A    between atoms: _211  and  _212
REMARK   95  A    between atoms: _217  and  _219
REMARK   96  A    between atoms: _219  and  _220
REMARK   97  A    between atoms: _219  and  _222
REMARK   98  A    between atoms: _222  and  _223
REMARK   99  A    between atoms: _228  and  _230
REMARK  100  A    between atoms: _230  and  _231
REMARK  101  A    between atoms: _230  and  _233
REMARK  102  A    between atoms: _233  and  _234
REMARK  103  A    between atoms: _237  and  _239
REMARK  104  A    between atoms: _239  and  _240
REMARK  105  A    between atoms: _239  and  _242
REMARK  106  A    between atoms: _242  and  _243
REMARK  107  A    between atoms: _243  and  _244
REMARK  108  A    between atoms: _247  and  _249
REMARK  109  A    between atoms: _249  and  _250
REMARK  110  A    between atoms: _249  and  _252
REMARK  111  A    between atoms: _255  and  _257
REMARK  112  A    between atoms: _257  and  _258
REMARK  113  A    between atoms: _257  and  _260
REMARK  114  A    between atoms: _260  and  _261
REMARK  115  A    between atoms: _261  and  _262
REMARK  116  A    between atoms: _262  and  _263
REMARK  117  A    between atoms: _263  and  _264
REMARK  118  A    between atoms: _268  and  _270
REMARK  119  A    between atoms: _270  and  _271
REMARK  120  A    between atoms: _270  and  _273
REMARK  121  A    between atoms: _273  and  _274
REMARK  122  A    between atoms: _277  and  _279
REMARK  123  A    between atoms: _279  and  _280
REMARK  124  A    between atoms: _279  and  _282
REMARK  125  A    between atoms: _282  and  _283
REMARK  126  A    between atoms: _283  and  _284
REMARK  127  A    between atoms: _286  and  _288
REMARK  128  A    between atoms: _288  and  _289
REMARK  129  A    between atoms: _288  and  _291
REMARK  130  A    between atoms: _294  and  _296
REMARK  131  A    between atoms: _296  and  _297
REMARK  132  A    between atoms: _296  and  _299
REMARK  133  A    between atoms: _299  and  _300
REMARK  134  A    between atoms: _300  and  _301
REMARK  135  A    between atoms: _303  and  _305
REMARK  136  A    between atoms: _305  and  _306
REMARK  137  A    between atoms: _305  and  _308
REMARK  138  A    between atoms: _308  and  _309
REMARK  139  A    between atoms: _309  and  _310
REMARK  140  A    between atoms: _313  and  _315
REMARK  141  A    between atoms: _315  and  _316
REMARK  142  A    between atoms: _315  and  _318
REMARK  143  A    between atoms: _318  and  _319
REMARK  144  A    between atoms: _324  and  _325
REMARK  145  A    between atoms: _327  and  _329
REMARK  146  A    between atoms: _329  and  _330
REMARK  147  A    between atoms: _329  and  _332
REMARK  148  A    between atoms: _336  and  _337
REMARK  149  A    between atoms: _342  and  _344
REMARK  150  A    between atoms: _344  and  _345
REMARK  151  A    between atoms: _347  and  _349
REMARK  152  A    between atoms: _349  and  _350
REMARK  153  A    between atoms: _352  and  _354
REMARK  154  A    between atoms: _354  and  _355
REMARK  155  A    between atoms: _354  and  _357
REMARK  156  A    between atoms: _357  and  _358
REMARK  157  A    between atoms: _358  and  _359
REMARK  158  A    between atoms: _362  and  _364
REMARK  159  A    between atoms: _364  and  _365
REMARK  160  A    between atoms: _364  and  _367
REMARK  161  A    between atoms: _367  and  _368
REMARK  162  A    between atoms: _368  and  _369
REMARK  163  A    between atoms: _371  and  _373
REMARK  164  A    between atoms: _373  and  _374
REMARK  165  A    between atoms: _373  and  _376
REMARK  166  A    between atoms: _376  and  _377
REMARK  167  A    between atoms: _383  and  _385
REMARK  168  A    between atoms: _385  and  _386
REMARK  169  A    between atoms: _385  and  _388
REMARK  170  A    between atoms: _388  and  _389
REMARK  171  A    between atoms: _391  and  _393
REMARK  172  A    between atoms: _393  and  _394
REMARK  173  A    between atoms: _393  and  _396
REMARK  174  A    between atoms: _396  and  _397
REMARK  175  A    between atoms: _400  and  _402
REMARK  176  A    between atoms: _402  and  _403
REMARK  177  A    between atoms: _402  and  _405
REMARK  178  A    between atoms: _405  and  _406
REMARK  179  A    between atoms: _406  and  _407
REMARK  180  A    between atoms: _407  and  _408
REMARK  181  A    between atoms: _417  and  _419
REMARK  182  A    between atoms: _419  and  _420
REMARK  183  A    between atoms: _419  and  _422
REMARK  184  A    between atoms: _422  and  _423
REMARK  185  A    between atoms: _428  and  _429
REMARK  186  A    between atoms: _431  and  _433
REMARK  187  A    between atoms: _433  and  _434
REMARK  188  A    between atoms: _433  and  _436
REMARK  189  A    between atoms: _436  and  _437
REMARK  190  A    between atoms: _437  and  _438
REMARK  191  A    between atoms: _438  and  _439
REMARK  192  A    between atoms: _448  and  _450
REMARK  193  A    between atoms: _450  and  _451
REMARK  194  A    between atoms: _450  and  _453
REMARK  195  A    between atoms: _453  and  _454
REMARK  196  A    between atoms: _457  and  _459
REMARK  197  A    between atoms: _459  and  _460
REMARK  198  A    between atoms: _459  and  _462
REMARK  199  A    between atoms: _462  and  _463
REMARK  200  A    between atoms: _466  and  _468
REMARK  201  A    between atoms: _468  and  _469
REMARK  202  A    between atoms: _468  and  _471
REMARK  203  A    between atoms: _471  and  _472
REMARK  204  A    between atoms: _472  and  _473
REMARK  205  A    between atoms: _473  and  _474
REMARK  206  A    between atoms: _474  and  _475
REMARK  207  A    between atoms: _480  and  _481
REMARK  208  A    between atoms: _486  and  _488
REMARK  209  A    between atoms: _488  and  _489
REMARK  210  A    between atoms: _488  and  _491
REMARK  211  A    between atoms: _491  and  _492
REMARK  212  A    between atoms: _492  and  _493
REMARK  213  A    between atoms: _496  and  _498
REMARK  214  A    between atoms: _498  and  _499
REMARK  215  A    between atoms: _498  and  _501
REMARK  216  A    between atoms: _501  and  _502
REMARK  217  A    between atoms: _507  and  _509
REMARK  218  A    between atoms: _509  and  _510
REMARK  219  A    between atoms: _509  and  _512
REMARK  220  A    between atoms: _512  and  _513
REMARK  221  A    between atoms: _516  and  _518
REMARK  222  A    between atoms: _518  and  _519
REMARK  223  A    between atoms: _518  and  _521
REMARK  224  A    between atoms: _521  and  _522
REMARK  225  A    between atoms: _525  and  _527
REMARK  226  A    between atoms: _527  and  _528
REMARK  227  A    between atoms: _527  and  _530
REMARK  228  A    between atoms: _530  and  _531
REMARK  229  A    between atoms: _534  and  _536
REMARK  230  A    between atoms: _536  and  _537
REMARK  231  A    between atoms: _536  and  _539
REMARK  232  A    between atoms: _539  and  _540
REMARK  233  A    between atoms: _543  and  _545
REMARK  234  A    between atoms: _545  and  _546
REMARK  235  A    between atoms: _545  and  _548
REMARK  236  A    between atoms: _548  and  _549
REMARK  237  A    between atoms: _549  and  _550
REMARK  238  A    between atoms: _555  and  _557
REMARK  239  A    between atoms: _557  and  _558
REMARK  240  A    between atoms: _557  and  _560
REMARK  241  A    between atoms: _563  and  _565
REMARK  242  A    between atoms: _565  and  _566
REMARK  243  A    between atoms: _565  and  _568
REMARK  244  A    between atoms: _568  and  _569
REMARK  245  A    between atoms: _572  and  _574
REMARK  246  A    between atoms: _574  and  _575
REMARK  247  A    between atoms: _574  and  _577
REMARK  248  A    between atoms: _577  and  _578
REMARK  249  A    between atoms: _581  and  _583
REMARK  250  A    between atoms: _583  and  _584
REMARK  251  A    between atoms: _583  and  _586
REMARK  252  A    between atoms: _586  and  _587
REMARK  253  A    between atoms: _593  and  _595
REMARK  254  A    between atoms: _595  and  _596
REMARK  255  A    between atoms: _598  and  _600
REMARK  256  A    between atoms: _600  and  _601
REMARK  257  A    between atoms: _600  and  _603
REMARK  258  A    between atoms: _603  and  _604
REMARK  259  A    between atoms: _610  and  _612
REMARK  260  A    between atoms: _612  and  _613
REMARK  261  A    between atoms: _612  and  _615
REMARK  262  A    between atoms: _617  and  _619
REMARK  263  A    between atoms: _619  and  _620
REMARK  264  A    between atoms: _622  and  _624
REMARK  265  A    between atoms: _624  and  _625
REMARK  266  A    between atoms: _624  and  _627
REMARK  267  A    between atoms: _627  and  _628
REMARK  268  A    between atoms: _632  and  _633
REMARK  269  A    between atoms: _638  and  _640
REMARK  270  A    between atoms: _640  and  _641
REMARK  271  A    between atoms: _640  and  _643
REMARK  272  A    between atoms: _643  and  _644
REMARK  273  A    between atoms: _644  and  _645
REMARK  274  A    between atoms: _648  and  _650
REMARK  275  A    between atoms: _650  and  _651
REMARK  276  A    between atoms: _650  and  _653
REMARK  277  A    between atoms: _653  and  _654
REMARK  278  A    between atoms: _659  and  _660
REMARK  279  A    between atoms: _662  and  _664
REMARK  280  A    between atoms: _664  and  _665
REMARK  281  A    between atoms: _664  and  _667
REMARK  282  A    between atoms: _670  and  _672
REMARK  283  A    between atoms: _672  and  _673
REMARK  284  A    between atoms: _672  and  _675
REMARK  285  A    between atoms: _675  and  _676
REMARK  286  A    between atoms: _679  and  _681
REMARK  287  A    between atoms: _681  and  _682
REMARK  288  A    between atoms: _681  and  _684
REMARK  289  A    between atoms: _684  and  _685
REMARK  290  A    between atoms: _685  and  _686
REMARK  291  A    between atoms: _689  and  _691
REMARK  292  A    between atoms: _691  and  _692
REMARK  293  A    between atoms: _694  and  _696
REMARK  294  A    between atoms: _696  and  _697
REMARK  295  A    between atoms: _696  and  _699
REMARK  296  A    between atoms: _699  and  _700
REMARK  297  A    between atoms: _705  and  _706
REMARK  298  A    between atoms: _709  and  _710
REMARK  299  A    between atoms: _716  and  _717
REMARK  300  A    between atoms: _722  and  _724
REMARK  301  A    between atoms: _724  and  _725
REMARK  302  A    between atoms: _724  and  _727
REMARK  303  A    between atoms: _727  and  _728
REMARK  304  A    between atoms: _734  and  _736
REMARK  305  A    between atoms: _736  and  _737
REMARK  306  A    between atoms: _736  and  _739
REMARK  307  A    between atoms: _739  and  _740
REMARK  308  A    between atoms: _746  and  _748
REMARK  309  A    between atoms: _748  and  _749
REMARK  310  A    between atoms: _752  and  _754
REMARK  311  A    between atoms: _754  and  _755
REMARK  312  A    between atoms: _754  and  _757
REMARK  313  A    between atoms: _757  and  _758
REMARK                            x       y       z     vdW  Elec       q    Type
REMARK                         _______ _______ _______ _____ _____    ______ ____
ROOT
ATOM      1  CA  ILE A   1      27.310  22.777   2.569  0.00  0.00    +0.133 C 
ENDROOT
BRANCH   1   2
ATOM      2  N   ILE A   1      27.590  23.129   1.177  0.00  0.00    -0.239 NA
ATOM      3  H   ILE A   1      27.184  22.551   0.414  0.00  0.00    +0.142 HD
ENDBRANCH   1   2
BRANCH   1   4
ATOM      4  C   ILE A   1      28.617  22.400   3.257  0.00  0.00    +0.224 C 
ATOM      5  O   ILE A   1      28.907  22.890   4.349  0.00  0.00    -0.287 OA
ENDBRANCH   1   4
BRANCH   1   6
ATOM      6  CB  ILE A   1      26.280  21.616   2.691  0.00  0.00    +0.023 C 
ATOM      7  CG2 ILE A   1      25.926  21.344   4.169  0.00  0.00    +0.002 C 
BRANCH   6   8
ATOM      8  CG1 ILE A   1      25.014  21.917   1.872  0.00  0.00    +0.002 C 
ATOM      9  CD1 ILE A   1      24.039  20.760   1.782  0.00  0.00    +0.000 C 
ENDBRANCH   6   8
ENDBRANCH   1   6
TORSDOF 4
REMARK  Name = ../refined-set-2016/3ag9/3ag9_pocket.pdb
REMARK  313 active torsions:
REMARK  status: ('A' for Active; 'I' for Inactive)
REMARK    1  A    between atoms: _1  and  _3
REMARK    2  A    between atoms: _3  and  _4
REMARK    3  A    between atoms: _3  and  _6
REMARK    4  A    between atoms: _6  and  _7
REMARK    5  A    between atoms: _10  and  _12
REMARK    6  A    between atoms: _12  and  _13
REMARK    7  A    between atoms: _12  and  _15
REMARK    8  A    between atoms: _15  and  _16
REMARK    9  A    between atoms: _19  and  _21
REMARK   10  A    between atoms: _21  and  _22
REMARK   11  A    between atoms: _24  and  _26
REMARK   12  A    between atoms: _26  and  _27
REMARK   13  A    between atoms: _26  and  _29
REMARK   14  A    between atoms: _29  and  _30
REMARK   15  A    between atoms: _33  and  _35
REMARK   16  A    between atoms: _35  and  _36
REMARK   17  A    between atoms: _38  and  _40
REMARK   18  A    between atoms: _40  and  _41
REMARK   19  A    between atoms: _40  and  _43
REMARK   20  A    between atoms: _43  and  _44
REMARK   21  A    between atoms: _46  and  _48
REMARK   22  A    between atoms: _48  and  _49
REMARK   23  A    between atoms: _48  and  _51
REMARK   24  A    between atoms: _51  and  _52
REMARK   25  A    between atoms: _58  and  _60
REMARK   26  A    between atoms: _60  and  _61
REMARK   27  A    between atoms: _63  and  _65
REMARK   28  A    between atoms: _65  and  _66
REMARK   29  A    between atoms: _65  and  _68
REMARK   30  A    between atoms: _68  and  _69
REMARK   31  A    between atoms: _69  and  _70
REMARK   32  A    between atoms: _70  and  _71
REMARK   33  A    between atoms: _80  and  _82
REMARK   34  A    between atoms: _82  and  _83
REMARK   35  A    between atoms: _82  and  _85
REMARK   36  A    between atoms: _88  and  _90
REMARK   37  A    between atoms: _90  and  _91
REMARK   38  A    between atoms: _90  and  _93
REMARK   39  A    between atoms: _93  and  _94
REMARK   40  A    between atoms: _94  and  _95
REMARK   41  A    between atoms: _97  and  _99
REMARK   42  A    between atoms: _99  and  _100
REMARK   43  A    between atoms: _99  and  _102
REMARK   44  A    between atoms: _102  and  _103
REMARK   45  A    between atoms: _106  and  _108
REMARK   46  A    between atoms: _108  and  _109
REMARK   47  A    between atoms: _108  and  _111
REMARK   48  A    between atoms: _111  and  _112
REMARK   49  A    between atoms: _117  and  _118
REMARK   50  A    between atoms: _120  and  _122
REMARK   51  A    between atoms: _122  and  _123
REMARK   52  A    between atoms: _126  and  _128
REMARK   53  A    between atoms: _128  and  _129
REMARK   54  A    between atoms: _128  and  _131
REMARK   55  A    between atoms: _131  and  _132
REMARK   56  A    between atoms: _132  and  _133
REMARK   57  A    between atoms: _135  and  _137
REMARK   58  A    between atoms: _137  and  _138
REMARK   59  A    between atoms: _137  and  _140
REMARK   60  A    between atoms: _140  and  _141
REMARK   61  A    between atoms: _141  and  _142
REMARK   62  A    between atoms: _142  and  _143
REMARK   63  A    between atoms: _143  and  _144
REMARK   64  A    between atoms: _148  and  _150
REMARK   65  A    between atoms: _150  and  _151
REMARK   66  A    between atoms: _150  and  _153
REMARK   67  A    between atoms: _153  and  _154
REMARK   68  A    between atoms: _157  and  _159
REMARK   69  A    between atoms: _159  and  _160
REMARK   70  A    between atoms: _159  and  _162
REMARK   71  A    between atoms: _162  and  _163
REMARK   72  A    between atoms: _166  and  _168
REMARK   73  A    between atoms: _168  and  _169
REMARK   74  A    between atoms: _168  and  _171
REMARK   75  A    between atoms: _171  and  _172
REMARK   76  A    between atoms: _175  and  _177
REMARK   77  A    between atoms: _177  and  _178
REMARK   78  A    between atoms: _177  and  _180
REMARK   79  A    between atoms: _180  and  _181
REMARK   80  A    between atoms: _181  and  _182
REMARK   81  A    between atoms: _182  and  _183
REMARK   82  A    between atoms: _183  and  _184
REMARK   83  A    between atoms: _188  and  _190
REMARK   84  A    between atoms: _190  and  _191
REMARK   85  A    between atoms: _190  and  _193
REMARK   86  A    between atoms: _196  and  _198
REMARK   87  A    between atoms: _198  and  _199
REMARK   88  A    between atoms: _198  and  _201
REMARK   89  A    between atoms: _201  and  _202
REMARK   90  A    between atoms: _205  and  _207
REMARK   91  A    between atoms: _207  and  _208
REMARK   92  A    between atoms: _207  and  _210
REMARK   93  A    between atoms: _210  and  _211
REMARK   94  A    between atoms: _211  and  _212
REMARK   95  A    between atoms: _217  and  _219
REMARK   96  A    between atoms: _219  and  _220
REMARK   97  A    between atoms: _219  and  _222
REMARK   98  A    between atoms: _222  and  _223
REMARK   99  A    between atoms: _228  and  _230
REMARK  100  A    between atoms: _230  and  _231
REMARK  101  A    between atoms: _230  and  _233
REMARK  102  A    between atoms: _233  and  _234
REMARK  103  A    between atoms: _237  and  _239
REMARK  104  A    between atoms: _239  and  _240
REMARK  105  A    between atoms: _239  and  _242
REMARK  106  A    between atoms: _242  and  _243
REMARK  107  A    between atoms: _243  and  _244
REMARK  108  A    between atoms: _247  and  _249
REMARK  109  A    between atoms: _249  and  _250
REMARK  110  A    between atoms: _249  and  _252
REMARK  111  A    between atoms: _255  and  _257
REMARK  112  A    between atoms: _257  and  _258
REMARK  113  A    between atoms: _257  and  _260
REMARK  114  A    between atoms: _260  and  _261
REMARK  115  A    between atoms: _261  and  _262
REMARK  116  A    between atoms: _262  and  _263
REMARK  117  A    between atoms: _263  and  _264
REMARK  118  A    between atoms: _268  and  _270
REMARK  119  A    between atoms: _270  and  _271
REMARK  120  A    between atoms: _270  and  _273
REMARK  121  A    between atoms: _273  and  _274
REMARK  122  A    between atoms: _277  and  _279
REMARK  123  A    between atoms: _279  and  _280
REMARK  124  A    between atoms: _279  and  _282
REMARK  125  A    between atoms: _282  and  _283
REMARK  126  A    between atoms: _283  and  _284
REMARK  127  A    between atoms: _286  and  _288
REMARK  128  A    between atoms: _288  and  _289
REMARK  129  A    between atoms: _288  and  _291
REMARK  130  A    between atoms: _294  and  _296
REMARK  131  A    between atoms: _296  and  _297
REMARK  132  A    between atoms: _296  and  _299
REMARK  133  A    between atoms: _299  and  _300
REMARK  134  A    between atoms: _300  and  _301
REMARK  135  A    between atoms: _303  and  _305
REMARK  136  A    between atoms: _305  and  _306
REMARK  137  A    between atoms: _305  and  _308
REMARK  138  A    between atoms: _308  and  _309
REMARK  139  A    between atoms: _309  and  _310
REMARK  140  A    between atoms: _313  and  _315
REMARK  141  A    between atoms: _315  and  _316
REMARK  142  A    between atoms: _315  and  _318
REMARK  143  A    between atoms: _318  and  _319
REMARK  144  A    between atoms: _324  and  _325
REMARK  145  A    between atoms: _327  and  _329
REMARK  146  A    between atoms: _329  and  _330
REMARK  147  A    between atoms: _329  and  _332
REMARK  148  A    between atoms: _336  and  _337
REMARK  149  A    between atoms: _342  and  _344
REMARK  150  A    between atoms: _344  and  _345
REMARK  151  A    between atoms: _347  and  _349
REMARK  152  A    between atoms: _349  and  _350
REMARK  153  A    between atoms: _352  and  _354
REMARK  154  A    between atoms: _354  and  _355
REMARK  155  A    between atoms: _354  and  _357
REMARK  156  A    between atoms: _357  and  _358
REMARK  157  A    between atoms: _358  and  _359
REMARK  158  A    between atoms: _362  and  _364
REMARK  159  A    between atoms: _364  and  _365
REMARK  160  A    between atoms: _364  and  _367
REMARK  161  A    between atoms: _367  and  _368
REMARK  162  A    between atoms: _368  and  _369
REMARK  163  A    between atoms: _371  and  _373
REMARK  164  A    between atoms: _373  and  _374
REMARK  165  A    between atoms: _373  and  _376
REMARK  166  A    between atoms: _376  and  _377
REMARK  167  A    between atoms: _383  and  _385
REMARK  168  A    between atoms: _385  and  _386
REMARK  169  A    between atoms: _385  and  _388
REMARK  170  A    between atoms: _388  and  _389
REMARK  171  A    between atoms: _391  and  _393
REMARK  172  A    between atoms: _393  and  _394
REMARK  173  A    between atoms: _393  and  _396
REMARK  174  A    between atoms: _396  and  _397
REMARK  175  A    between atoms: _400  and  _402
REMARK  176  A    between atoms: _402  and  _403
REMARK  177  A    between atoms: _402  and  _405
REMARK  178  A    between atoms: _405  and  _406
REMARK  179  A    between atoms: _406  and  _407
REMARK  180  A    between atoms: _407  and  _408
REMARK  181  A    between atoms: _417  and  _419
REMARK  182  A    between atoms: _419  and  _420
REMARK  183  A    between atoms: _419  and  _422
REMARK  184  A    between atoms: _422  and  _423
REMARK  185  A    between atoms: _428  and  _429
REMARK  186  A    between atoms: _431  and  _433
REMARK  187  A    between atoms: _433  and  _434
REMARK  188  A    between atoms: _433  and  _436
REMARK  189  A    between atoms: _436  and  _437
REMARK  190  A    between atoms: _437  and  _438
REMARK  191  A    between atoms: _438  and  _439
REMARK  192  A    between atoms: _448  and  _450
REMARK  193  A    between atoms: _450  and  _451
REMARK  194  A    between atoms: _450  and  _453
REMARK  195  A    between atoms: _453  and  _454
REMARK  196  A    between atoms: _457  and  _459
REMARK  197  A    between atoms: _459  and  _460
REMARK  198  A    between atoms: _459  and  _462
REMARK  199  A    between atoms: _462  and  _463
REMARK  200  A    between atoms: _466  and  _468
REMARK  201  A    between atoms: _468  and  _469
REMARK  202  A    between atoms: _468  and  _471
REMARK  203  A    between atoms: _471  and  _472
REMARK  204  A    between atoms: _472  and  _473
REMARK  205  A    between atoms: _473  and  _474
REMARK  206  A    between atoms: _474  and  _475
REMARK  207  A    between atoms: _480  and  _481
REMARK  208  A    between atoms: _486  and  _488
REMARK  209  A    between atoms: _488  and  _489
REMARK  210  A    between atoms: _488  and  _491
REMARK  211  A    between atoms: _491  and  _492
REMARK  212  A    between atoms: _492  and  _493
REMARK  213  A    between atoms: _496  and  _498
REMARK  214  A    between atoms: _498  and  _499
REMARK  215  A    between atoms: _498  and  _501
REMARK  216  A    between atoms: _501  and  _502
REMARK  217  A    between atoms: _507  and  _509
REMARK  218  A    between atoms: _509  and  _510
REMARK  219  A    between atoms: _509  and  _512
REMARK  220  A    between atoms: _512  and  _513
REMARK  221  A    between atoms: _516  and  _518
REMARK  222  A    between atoms: _518  and  _519
REMARK  223  A    between atoms: _518  and  _521
REMARK  224  A    between atoms: _521  and  _522
REMARK  225  A    between atoms: _525  and  _527
REMARK  226  A    between atoms: _527  and  _528
REMARK  227  A    between atoms: _527  and  _530
REMARK  228  A    between atoms: _530  and  _531
REMARK  229  A    between atoms: _534  and  _536
REMARK  230  A    between atoms: _536  and  _537
REMARK  231  A    between atoms: _536  and  _539
REMARK  232  A    between atoms: _539  and  _540
REMARK  233  A    between atoms: _543  and  _545
REMARK  234  A    between atoms: _545  and  _546
REMARK  235  A    between atoms: _545  and  _548
REMARK  236  A    between atoms: _548  and  _549
REMARK  237  A    between atoms: _549  and  _550
REMARK  238  A    between atoms: _555  and  _557
REMARK  239  A    between atoms: _557  and  _558
REMARK  240  A    between atoms: _557  and  _560
REMARK  241  A    between atoms: _563  and  _565
REMARK  242  A    between atoms: _565  and  _566
REMARK  243  A    between atoms: _565  and  _568
REMARK  244  A    between atoms: _568  and  _569
REMARK  245  A    between atoms: _572  and  _574
REMARK  246  A    between atoms: _574  and  _575
REMARK  247  A    between atoms: _574  and  _577
REMARK  248  A    between atoms: _577  and  _578
REMARK  249  A    between atoms: _581  and  _583
REMARK  250  A    between atoms: _583  and  _584
REMARK  251  A    between atoms: _583  and  _586
REMARK  252  A    between atoms: _586  and  _587
REMARK  253  A    between atoms: _593  and  _595
REMARK  254  A    between atoms: _595  and  _596
REMARK  255  A    between atoms: _598  and  _600
REMARK  256  A    between atoms: _600  and  _601
REMARK  257  A    between atoms: _600  and  _603
REMARK  258  A    between atoms: _603  and  _604
REMARK  259  A    between atoms: _610  and  _612
REMARK  260  A    between atoms: _612  and  _613
REMARK  261  A    between atoms: _612  and  _615
REMARK  262  A    between atoms: _617  and  _619
REMARK  263  A    between atoms: _619  and  _620
REMARK  264  A    between atoms: _622  and  _624
REMARK  265  A    between atoms: _624  and  _625
REMARK  266  A    between atoms: _624  and  _627
REMARK  267  A    between atoms: _627  and  _628
REMARK  268  A    between atoms: _632  and  _633
REMARK  269  A    between atoms: _638  and  _640
REMARK  270  A    between atoms: _640  and  _641
REMARK  271  A    between atoms: _640  and  _643
REMARK  272  A    between atoms: _643  and  _644
REMARK  273  A    between atoms: _644  and  _645
REMARK  274  A    between atoms: _648  and  _650
REMARK  275  A    between atoms: _650  and  _651
REMARK  276  A    between atoms: _650  and  _653
REMARK  277  A    between atoms: _653  and  _654
REMARK  278  A    between atoms: _659  and  _660
REMARK  279  A    between atoms: _662  and  _664
REMARK  280  A    between atoms: _664  and  _665
REMARK  281  A    between atoms: _664  and  _667
REMARK  282  A    between atoms: _670  and  _672
REMARK  283  A    between atoms: _672  and  _673
REMARK  284  A    between atoms: _672  and  _675
REMARK  285  A    between atoms: _675  and  _676
REMARK  286  A    between atoms: _679  and  _681
REMARK  287  A    between atoms: _681  and  _682
REMARK  288  A    between atoms: _681  and  _684
REMARK  289  A    between atoms: _684  and  _685
REMARK  290  A    between atoms: _685  and  _686
REMARK  291  A    between atoms: _689  and  _691
REMARK  292  A    between atoms: _691  and  _692
REMARK  293  A    between atoms: _694  and  _696
REMARK  294  A    between atoms: _696  and  _697
REMARK  295  A    between atoms: _696  and  _699
REMARK  296  A    between atoms: _699  and  _700
REMARK  297  A    between atoms: _705  and  _706
REMARK  298  A    between atoms: _709  and  _710
REMARK  299  A    between atoms: _716  and  _717
REMARK  300  A    between atoms: _722  and  _724
REMARK  301  A    between atoms: _724  and  _725
REMARK  302  A    between atoms: _724  and  _727
REMARK  303  A    between atoms: _727  and  _728
REMARK  304  A    between atoms: _734  and  _736
REMARK  305  A    between atoms: _736  and  _737
REMARK  306  A    between atoms: _736  and  _739
REMARK  307  A    between atoms: _739  and  _740
REMARK  308  A    between atoms: _746  and  _748
REMARK  309  A    between atoms: _748  and  _749
REMARK  310  A    between atoms: _752  and  _754
REMARK  311  A    between atoms: _754  and  _755
REMARK  312  A    between atoms: _754  and  _757
REMARK  313  A    between atoms: _757  and  _758
REMARK                            x       y       z     vdW  Elec       q    Type
REMARK                         _______ _______ _______ _____ _____    ______ ____
ROOT
ATOM      1  O   HOH     1      12.885   2.669  16.983  0.00  0.00    +0.000 OA
ENDROOT
TORSDOF 0
REMARK  Name = ../refined-set-2016/3ag9/3ag9_pocket.pdb
REMARK  313 active torsions:
REMARK  status: ('A' for Active; 'I' for Inactive)
REMARK    1  A    between atoms: _1  and  _3
REMARK    2  A    between atoms: _3  and  _4
REMARK    3  A    between atoms: _3  and  _6
REMARK    4  A    between atoms: _6  and  _7
REMARK    5  A    between atoms: _10  and  _12
REMARK    6  A    between atoms: _12  and  _13
REMARK    7  A    between atoms: _12  and  _15
REMARK    8  A    between atoms: _15  and  _16
REMARK    9  A    between atoms: _19  and  _21
REMARK   10  A    between atoms: _21  and  _22
REMARK   11  A    between atoms: _24  and  _26
REMARK   12  A    between atoms: _26  and  _27
REMARK   13  A    between atoms: _26  and  _29
REMARK   14  A    between atoms: _29  and  _30
REMARK   15  A    between atoms: _33  and  _35
REMARK   16  A    between atoms: _35  and  _36
REMARK   17  A    between atoms: _38  and  _40
REMARK   18  A    between atoms: _40  and  _41
REMARK   19  A    between atoms: _40  and  _43
REMARK   20  A    between atoms: _43  and  _44
REMARK   21  A    between atoms: _46  and  _48
REMARK   22  A    between atoms: _48  and  _49
REMARK   23  A    between atoms: _48  and  _51
REMARK   24  A    between atoms: _51  and  _52
REMARK   25  A    between atoms: _58  and  _60
REMARK   26  A    between atoms: _60  and  _61
REMARK   27  A    between atoms: _63  and  _65
REMARK   28  A    between atoms: _65  and  _66
REMARK   29  A    between atoms: _65  and  _68
REMARK   30  A    between atoms: _68  and  _69
REMARK   31  A    between atoms: _69  and  _70
REMARK   32  A    between atoms: _70  and  _71
REMARK   33  A    between atoms: _80  and  _82
REMARK   34  A    between atoms: _82  and  _83
REMARK   35  A    between atoms: _82  and  _85
REMARK   36  A    between atoms: _88  and  _90
REMARK   37  A    between atoms: _90  and  _91
REMARK   38  A    between atoms: _90  and  _93
REMARK   39  A    between atoms: _93  and  _94
REMARK   40  A    between atoms: _94  and  _95
REMARK   41  A    between atoms: _97  and  _99
REMARK   42  A    between atoms: _99  and  _100
REMARK   43  A    between atoms: _99  and  _102
REMARK   44  A    between atoms: _102  and  _103
REMARK   45  A    between atoms: _106  and  _108
REMARK   46  A    between atoms: _108  and  _109
REMARK   47  A    between atoms: _108  and  _111
REMARK   48  A    between atoms: _111  and  _112
REMARK   49  A    between atoms: _117  and  _118
REMARK   50  A    between atoms: _120  and  _122
REMARK   51  A    between atoms: _122  and  _123
REMARK   52  A    between atoms: _126  and  _128
REMARK   53  A    between atoms: _128  and  _129
REMARK   54  A    between atoms: _128  and  _131
REMARK   55  A    between atoms: _131  and  _132
REMARK   56  A    between atoms: _132  and  _133
REMARK   57  A    between atoms: _135  and  _137
REMARK   58  A    between atoms: _137  and  _138
REMARK   59  A    between atoms: _137  and  _140
REMARK   60  A    between atoms: _140  and  _141
REMARK   61  A    between atoms: _141  and  _142
REMARK   62  A    between atoms: _142  and  _143
REMARK   63  A    between atoms: _143  and  _144
REMARK   64  A    between atoms: _148  and  _150
REMARK   65  A    between atoms: _150  and  _151
REMARK   66  A    between atoms: _150  and  _153
REMARK   67  A    between atoms: _153  and  _154
REMARK   68  A    between atoms: _157  and  _159
REMARK   69  A    between atoms: _159  and  _160
REMARK   70  A    between atoms: _159  and  _162
REMARK   71  A    between atoms: _162  and  _163
REMARK   72  A    between atoms: _166  and  _168
REMARK   73  A    between atoms: _168  and  _169
REMARK   74  A    between atoms: _168  and  _171
REMARK   75  A    between atoms: _171  and  _172
REMARK   76  A    between atoms: _175  and  _177
REMARK   77  A    between atoms: _177  and  _178
REMARK   78  A    between atoms: _177  and  _180
REMARK   79  A    between atoms: _180  and  _181
REMARK   80  A    between atoms: _181  and  _182
REMARK   81  A    between atoms: _182  and  _183
REMARK   82  A    between atoms: _183  and  _184
REMARK   83  A    between atoms: _188  and  _190
REMARK   84  A    between atoms: _190  and  _191
REMARK   85  A    between atoms: _190  and  _193
REMARK   86  A    between atoms: _196  and  _198
REMARK   87  A    between atoms: _198  and  _199
REMARK   88  A    between atoms: _198  and  _201
REMARK   89  A    between atoms: _201  and  _202
REMARK   90  A    between atoms: _205  and  _207
REMARK   91  A    between atoms: _207  and  _208
REMARK   92  A    between atoms: _207  and  _210
REMARK   93  A    between atoms: _210  and  _211
REMARK   94  A    between atoms: _211  and  _212
REMARK   95  A    between atoms: _217  and  _219
REMARK   96  A    between atoms: _219  and  _220
REMARK   97  A    between atoms: _219  and  _222
REMARK   98  A    between atoms: _222  and  _223
REMARK   99  A    between atoms: _228  and  _230
REMARK  100  A    between atoms: _230  and  _231
REMARK  101  A    between atoms: _230  and  _233
REMARK  102  A    between atoms: _233  and  _234
REMARK  103  A    between atoms: _237  and  _239
REMARK  104  A    between atoms: _239  and  _240
REMARK  105  A    between atoms: _239  and  _242
REMARK  106  A    between atoms: _242  and  _243
REMARK  107  A    between atoms: _243  and  _244
REMARK  108  A    between atoms: _247  and  _249
REMARK  109  A    between atoms: _249  and  _250
REMARK  110  A    between atoms: _249  and  _252
REMARK  111  A    between atoms: _255  and  _257
REMARK  112  A    between atoms: _257  and  _258
REMARK  113  A    between atoms: _257  and  _260
REMARK  114  A    between atoms: _260  and  _261
REMARK  115  A    between atoms: _261  and  _262
REMARK  116  A    between atoms: _262  and  _263
REMARK  117  A    between atoms: _263  and  _264
REMARK  118  A    between atoms: _268  and  _270
REMARK  119  A    between atoms: _270  and  _271
REMARK  120  A    between atoms: _270  and  _273
REMARK  121  A    between atoms: _273  and  _274
REMARK  122  A    between atoms: _277  and  _279
REMARK  123  A    between atoms: _279  and  _280
REMARK  124  A    between atoms: _279  and  _282
REMARK  125  A    between atoms: _282  and  _283
REMARK  126  A    between atoms: _283  and  _284
REMARK  127  A    between atoms: _286  and  _288
REMARK  128  A    between atoms: _288  and  _289
REMARK  129  A    between atoms: _288  and  _291
REMARK  130  A    between atoms: _294  and  _296
REMARK  131  A    between atoms: _296  and  _297
REMARK  132  A    between atoms: _296  and  _299
REMARK  133  A    between atoms: _299  and  _300
REMARK  134  A    between atoms: _300  and  _301
REMARK  135  A    between atoms: _303  and  _305
REMARK  136  A    between atoms: _305  and  _306
REMARK  137  A    between atoms: _305  and  _308
REMARK  138  A    between atoms: _308  and  _309
REMARK  139  A    between atoms: _309  and  _310
REMARK  140  A    between atoms: _313  and  _315
REMARK  141  A    between atoms: _315  and  _316
REMARK  142  A    between atoms: _315  and  _318
REMARK  143  A    between atoms: _318  and  _319
REMARK  144  A    between atoms: _324  and  _325
REMARK  145  A    between atoms: _327  and  _329
REMARK  146  A    between atoms: _329  and  _330
REMARK  147  A    between atoms: _329  and  _332
REMARK  148  A    between atoms: _336  and  _337
REMARK  149  A    between atoms: _342  and  _344
REMARK  150  A    between atoms: _344  and  _345
REMARK  151  A    between atoms: _347  and  _349
REMARK  152  A    between atoms: _349  and  _350
REMARK  153  A    between atoms: _352  and  _354
REMARK  154  A    between atoms: _354  and  _355
REMARK  155  A    between atoms: _354  and  _357
REMARK  156  A    between atoms: _357  and  _358
REMARK  157  A    between atoms: _358  and  _359
REMARK  158  A    between atoms: _362  and  _364
REMARK  159  A    between atoms: _364  and  _365
REMARK  160  A    between atoms: _364  and  _367
REMARK  161  A    between atoms: _367  and  _368
REMARK  162  A    between atoms: _368  and  _369
REMARK  163  A    between atoms: _371  and  _373
REMARK  164  A    between atoms: _373  and  _374
REMARK  165  A    between atoms: _373  and  _376
REMARK  166  A    between atoms: _376  and  _377
REMARK  167  A    between atoms: _383  and  _385
REMARK  168  A    between atoms: _385  and  _386
REMARK  169  A    between atoms: _385  and  _388
REMARK  170  A    between atoms: _388  and  _389
REMARK  171  A    between atoms: _391  and  _393
REMARK  172  A    between atoms: _393  and  _394
REMARK  173  A    between atoms: _393  and  _396
REMARK  174  A    between atoms: _396  and  _397
REMARK  175  A    between atoms: _400  and  _402
REMARK  176  A    between atoms: _402  and  _403
REMARK  177  A    between atoms: _402  and  _405
REMARK  178  A    between atoms: _405  and  _406
REMARK  179  A    between atoms: _406  and  _407
REMARK  180  A    between atoms: _407  and  _408
REMARK  181  A    between atoms: _417  and  _419
REMARK  182  A    between atoms: _419  and  _420
REMARK  183  A    between atoms: _419  and  _422
REMARK  184  A    between atoms: _422  and  _423
REMARK  185  A    between atoms: _428  and  _429
REMARK  186  A    between atoms: _431  and  _433
REMARK  187  A    between atoms: _433  and  _434
REMARK  188  A    between atoms: _433  and  _436
REMARK  189  A    between atoms: _436  and  _437
REMARK  190  A    between atoms: _437  and  _438
REMARK  191  A    between atoms: _438  and  _439
REMARK  192  A    between atoms: _448  and  _450
REMARK  193  A    between atoms: _450  and  _451
REMARK  194  A    between atoms: _450  and  _453
REMARK  195  A    between atoms: _453  and  _454
REMARK  196  A    between atoms: _457  and  _459
REMARK  197  A    between atoms: _459  and  _460
REMARK  198  A    between atoms: _459  and  _462
REMARK  199  A    between atoms: _462  and  _463
REMARK  200  A    between atoms: _466  and  _468
REMARK  201  A    between atoms: _468  and  _469
REMARK  202  A    between atoms: _468  and  _471
REMARK  203  A    between atoms: _471  and  _472
REMARK  204  A    between atoms: _472  and  _473
REMARK  205  A    between atoms: _473  and  _474
REMARK  206  A    between atoms: _474  and  _475
REMARK  207  A    between atoms: _480  and  _481
REMARK  208  A    between atoms: _486  and  _488
REMARK  209  A    between atoms: _488  and  _489
REMARK  210  A    between atoms: _488  and  _491
REMARK  211  A    between atoms: _491  and  _492
REMARK  212  A    between atoms: _492  and  _493
REMARK  213  A    between atoms: _496  and  _498
REMARK  214  A    between atoms: _498  and  _499
REMARK  215  A    between atoms: _498  and  _501
REMARK  216  A    between atoms: _501  and  _502
REMARK  217  A    between atoms: _507  and  _509
REMARK  218  A    between atoms: _509  and  _510
REMARK  219  A    between atoms: _509  and  _512
REMARK  220  A    between atoms: _512  and  _513
REMARK  221  A    between atoms: _516  and  _518
REMARK  222  A    between atoms: _518  and  _519
REMARK  223  A    between atoms: _518  and  _521
REMARK  224  A    between atoms: _521  and  _522
REMARK  225  A    between atoms: _525  and  _527
REMARK  226  A    between atoms: _527  and  _528
REMARK  227  A    between atoms: _527  and  _530
REMARK  228  A    between atoms: _530  and  _531
REMARK  229  A    between atoms: _534  and  _536
REMARK  230  A    between atoms: _536  and  _537
REMARK  231  A    between atoms: _536  and  _539
REMARK  232  A    between atoms: _539  and  _540
REMARK  233  A    between atoms: _543  and  _545
REMARK  234  A    between atoms: _545  and  _546
REMARK  235  A    between atoms: _545  and  _548
REMARK  236  A    between atoms: _548  and  _549
REMARK  237  A    between atoms: _549  and  _550
REMARK  238  A    between atoms: _555  and  _557
REMARK  239  A    between atoms: _557  and  _558
REMARK  240  A    between atoms: _557  and  _560
REMARK  241  A    between atoms: _563  and  _565
REMARK  242  A    between atoms: _565  and  _566
REMARK  243  A    between atoms: _565  and  _568
REMARK  244  A    between atoms: _568  and  _569
REMARK  245  A    between atoms: _572  and  _574
REMARK  246  A    between atoms: _574  and  _575
REMARK  247  A    between atoms: _574  and  _577
REMARK  248  A    between atoms: _577  and  _578
REMARK  249  A    between atoms: _581  and  _583
REMARK  250  A    between atoms: _583  and  _584
REMARK  251  A    between atoms: _583  and  _586
REMARK  252  A    between atoms: _586  and  _587
REMARK  253  A    between atoms: _593  and  _595
REMARK  254  A    between atoms: _595  and  _596
REMARK  255  A    between atoms: _598  and  _600
REMARK  256  A    between atoms: _600  and  _601
REMARK  257  A    between atoms: _600  and  _603
REMARK  258  A    between atoms: _603  and  _604
REMARK  259  A    between atoms: _610  and  _612
REMARK  260  A    between atoms: _612  and  _613
REMARK  261  A    between atoms: _612  and  _615
REMARK  262  A    between atoms: _617  and  _619
REMARK  263  A    between atoms: _619  and  _620
REMARK  264  A    between atoms: _622  and  _624
REMARK  265  A    between atoms: _624  and  _625
REMARK  266  A    between atoms: _624  and  _627
REMARK  267  A    between atoms: _627  and  _628
REMARK  268  A    between atoms: _632  and  _633
REMARK  269  A    between atoms: _638  and  _640
REMARK  270  A    between atoms: _640  and  _641
REMARK  271  A    between atoms: _640  and  _643
REMARK  272  A    between atoms: _643  and  _644
REMARK  273  A    between atoms: _644  and  _645
REMARK  274  A    between atoms: _648  and  _650
REMARK  275  A    between atoms: _650  and  _651
REMARK  276  A    between atoms: _650  and  _653
REMARK  277  A    between atoms: _653  and  _654
REMARK  278  A    between atoms: _659  and  _660
REMARK  279  A    between atoms: _662  and  _664
REMARK  280  A    between atoms: _664  and  _665
REMARK  281  A    between atoms: _664  and  _667
REMARK  282  A    between atoms: _670  and  _672
REMARK  283  A    between atoms: _672  and  _673
REMARK  284  A    between atoms: _672  and  _675
REMARK  285  A    between atoms: _675  and  _676
REMARK  286  A    between atoms: _679  and  _681
REMARK  287  A    between atoms: _681  and  _682
REMARK  288  A    between atoms: _681  and  _684
REMARK  289  A    between atoms: _684  and  _685
REMARK  290  A    between atoms: _685  and  _686
REMARK  291  A    between atoms: _689  and  _691
REMARK  292  A    between atoms: _691  and  _692
REMARK  293  A    between atoms: _694  and  _696
REMARK  294  A    between atoms: _696  and  _697
REMARK  295  A    between atoms: _696  and  _699
REMARK  296  A    between atoms: _699  and  _700
REMARK  297  A    between atoms: _705  and  _706
REMARK  298  A    between atoms: _709  and  _710
REMARK  299  A    between atoms: _716  and  _717
REMARK  300  A    between atoms: _722  and  _724
REMARK  301  A    between atoms: _724  and  _725
REMARK  302  A    between atoms: _724  and  _727
REMARK  303  A    between atoms: _727  and  _728
REMARK  304  A    between atoms: _734  and  _736
REMARK  305  A    between atoms: _736  and  _737
REMARK  306  A    between atoms: _736  and  _739
REMARK  307  A    between atoms: _739  and  _740
REMARK  308  A    between atoms: _746  and  _748
REMARK  309  A    between atoms: _748  and  _749
REMARK  310  A    between atoms: _752  and  _754
REMARK  311  A    between atoms: _754  and  _755
REMARK  312  A    between atoms: _754  and  _757
REMARK  313  A    between atoms: _757  and  _758
REMARK                            x       y       z     vdW  Elec       q    Type
REMARK                         _______ _______ _______ _____ _____    ______ ____
ROOT
ATOM      1  O   HOH     1      21.578  10.594   8.102  0.00  0.00    +0.000 OA
ENDROOT
TORSDOF 0
REMARK  Name = ../refined-set-2016/3ag9/3ag9_pocket.pdb
REMARK  313 active torsions:
REMARK  status: ('A' for Active; 'I' for Inactive)
REMARK    1  A    between atoms: _1  and  _3
REMARK    2  A    between atoms: _3  and  _4
REMARK    3  A    between atoms: _3  and  _6
REMARK    4  A    between atoms: _6  and  _7
REMARK    5  A    between atoms: _10  and  _12
REMARK    6  A    between atoms: _12  and  _13
REMARK    7  A    between atoms: _12  and  _15
REMARK    8  A    between atoms: _15  and  _16
REMARK    9  A    between atoms: _19  and  _21
REMARK   10  A    between atoms: _21  and  _22
REMARK   11  A    between atoms: _24  and  _26
REMARK   12  A    between atoms: _26  and  _27
REMARK   13  A    between atoms: _26  and  _29
REMARK   14  A    between atoms: _29  and  _30
REMARK   15  A    between atoms: _33  and  _35
REMARK   16  A    between atoms: _35  and  _36
REMARK   17  A    between atoms: _38  and  _40
REMARK   18  A    between atoms: _40  and  _41
REMARK   19  A    between atoms: _40  and  _43
REMARK   20  A    between atoms: _43  and  _44
REMARK   21  A    between atoms: _46  and  _48
REMARK   22  A    between atoms: _48  and  _49
REMARK   23  A    between atoms: _48  and  _51
REMARK   24  A    between atoms: _51  and  _52
REMARK   25  A    between atoms: _58  and  _60
REMARK   26  A    between atoms: _60  and  _61
REMARK   27  A    between atoms: _63  and  _65
REMARK   28  A    between atoms: _65  and  _66
REMARK   29  A    between atoms: _65  and  _68
REMARK   30  A    between atoms: _68  and  _69
REMARK   31  A    between atoms: _69  and  _70
REMARK   32  A    between atoms: _70  and  _71
REMARK   33  A    between atoms: _80  and  _82
REMARK   34  A    between atoms: _82  and  _83
REMARK   35  A    between atoms: _82  and  _85
REMARK   36  A    between atoms: _88  and  _90
REMARK   37  A    between atoms: _90  and  _91
REMARK   38  A    between atoms: _90  and  _93
REMARK   39  A    between atoms: _93  and  _94
REMARK   40  A    between atoms: _94  and  _95
REMARK   41  A    between atoms: _97  and  _99
REMARK   42  A    between atoms: _99  and  _100
REMARK   43  A    between atoms: _99  and  _102
REMARK   44  A    between atoms: _102  and  _103
REMARK   45  A    between atoms: _106  and  _108
REMARK   46  A    between atoms: _108  and  _109
REMARK   47  A    between atoms: _108  and  _111
REMARK   48  A    between atoms: _111  and  _112
REMARK   49  A    between atoms: _117  and  _118
REMARK   50  A    between atoms: _120  and  _122
REMARK   51  A    between atoms: _122  and  _123
REMARK   52  A    between atoms: _126  and  _128
REMARK   53  A    between atoms: _128  and  _129
REMARK   54  A    between atoms: _128  and  _131
REMARK   55  A    between atoms: _131  and  _132
REMARK   56  A    between atoms: _132  and  _133
REMARK   57  A    between atoms: _135  and  _137
REMARK   58  A    between atoms: _137  and  _138
REMARK   59  A    between atoms: _137  and  _140
REMARK   60  A    between atoms: _140  and  _141
REMARK   61  A    between atoms: _141  and  _142
REMARK   62  A    between atoms: _142  and  _143
REMARK   63  A    between atoms: _143  and  _144
REMARK   64  A    between atoms: _148  and  _150
REMARK   65  A    between atoms: _150  and  _151
REMARK   66  A    between atoms: _150  and  _153
REMARK   67  A    between atoms: _153  and  _154
REMARK   68  A    between atoms: _157  and  _159
REMARK   69  A    between atoms: _159  and  _160
REMARK   70  A    between atoms: _159  and  _162
REMARK   71  A    between atoms: _162  and  _163
REMARK   72  A    between atoms: _166  and  _168
REMARK   73  A    between atoms: _168  and  _169
REMARK   74  A    between atoms: _168  and  _171
REMARK   75  A    between atoms: _171  and  _172
REMARK   76  A    between atoms: _175  and  _177
REMARK   77  A    between atoms: _177  and  _178
REMARK   78  A    between atoms: _177  and  _180
REMARK   79  A    between atoms: _180  and  _181
REMARK   80  A    between atoms: _181  and  _182
REMARK   81  A    between atoms: _182  and  _183
REMARK   82  A    between atoms: _183  and  _184
REMARK   83  A    between atoms: _188  and  _190
REMARK   84  A    between atoms: _190  and  _191
REMARK   85  A    between atoms: _190  and  _193
REMARK   86  A    between atoms: _196  and  _198
REMARK   87  A    between atoms: _198  and  _199
REMARK   88  A    between atoms: _198  and  _201
REMARK   89  A    between atoms: _201  and  _202
REMARK   90  A    between atoms: _205  and  _207
REMARK   91  A    between atoms: _207  and  _208
REMARK   92  A    between atoms: _207  and  _210
REMARK   93  A    between atoms: _210  and  _211
REMARK   94  A    between atoms: _211  and  _212
REMARK   95  A    between atoms: _217  and  _219
REMARK   96  A    between atoms: _219  and  _220
REMARK   97  A    between atoms: _219  and  _222
REMARK   98  A    between atoms: _222  and  _223
REMARK   99  A    between atoms: _228  and  _230
REMARK  100  A    between atoms: _230  and  _231
REMARK  101  A    between atoms: _230  and  _233
REMARK  102  A    between atoms: _233  and  _234
REMARK  103  A    between atoms: _237  and  _239
REMARK  104  A    between atoms: _239  and  _240
REMARK  105  A    between atoms: _239  and  _242
REMARK  106  A    between atoms: _242  and  _243
REMARK  107  A    between atoms: _243  and  _244
REMARK  108  A    between atoms: _247  and  _249
REMARK  109  A    between atoms: _249  and  _250
REMARK  110  A    between atoms: _249  and  _252
REMARK  111  A    between atoms: _255  and  _257
REMARK  112  A    between atoms: _257  and  _258
REMARK  113  A    between atoms: _257  and  _260
REMARK  114  A    between atoms: _260  and  _261
REMARK  115  A    between atoms: _261  and  _262
REMARK  116  A    between atoms: _262  and  _263
REMARK  117  A    between atoms: _263  and  _264
REMARK  118  A    between atoms: _268  and  _270
REMARK  119  A    between atoms: _270  and  _271
REMARK  120  A    between atoms: _270  and  _273
REMARK  121  A    between atoms: _273  and  _274
REMARK  122  A    between atoms: _277  and  _279
REMARK  123  A    between atoms: _279  and  _280
REMARK  124  A    between atoms: _279  and  _282
REMARK  125  A    between atoms: _282  and  _283
REMARK  126  A    between atoms: _283  and  _284
REMARK  127  A    between atoms: _286  and  _288
REMARK  128  A    between atoms: _288  and  _289
REMARK  129  A    between atoms: _288  and  _291
REMARK  130  A    between atoms: _294  and  _296
REMARK  131  A    between atoms: _296  and  _297
REMARK  132  A    between atoms: _296  and  _299
REMARK  133  A    between atoms: _299  and  _300
REMARK  134  A    between atoms: _300  and  _301
REMARK  135  A    between atoms: _303  and  _305
REMARK  136  A    between atoms: _305  and  _306
REMARK  137  A    between atoms: _305  and  _308
REMARK  138  A    between atoms: _308  and  _309
REMARK  139  A    between atoms: _309  and  _310
REMARK  140  A    between atoms: _313  and  _315
REMARK  141  A    between atoms: _315  and  _316
REMARK  142  A    between atoms: _315  and  _318
REMARK  143  A    between atoms: _318  and  _319
REMARK  144  A    between atoms: _324  and  _325
REMARK  145  A    between atoms: _327  and  _329
REMARK  146  A    between atoms: _329  and  _330
REMARK  147  A    between atoms: _329  and  _332
REMARK  148  A    between atoms: _336  and  _337
REMARK  149  A    between atoms: _342  and  _344
REMARK  150  A    between atoms: _344  and  _345
REMARK  151  A    between atoms: _347  and  _349
REMARK  152  A    between atoms: _349  and  _350
REMARK  153  A    between atoms: _352  and  _354
REMARK  154  A    between atoms: _354  and  _355
REMARK  155  A    between atoms: _354  and  _357
REMARK  156  A    between atoms: _357  and  _358
REMARK  157  A    between atoms: _358  and  _359
REMARK  158  A    between atoms: _362  and  _364
REMARK  159  A    between atoms: _364  and  _365
REMARK  160  A    between atoms: _364  and  _367
REMARK  161  A    between atoms: _367  and  _368
REMARK  162  A    between atoms: _368  and  _369
REMARK  163  A    between atoms: _371  and  _373
REMARK  164  A    between atoms: _373  and  _374
REMARK  165  A    between atoms: _373  and  _376
REMARK  166  A    between atoms: _376  and  _377
REMARK  167  A    between atoms: _383  and  _385
REMARK  168  A    between atoms: _385  and  _386
REMARK  169  A    between atoms: _385  and  _388
REMARK  170  A    between atoms: _388  and  _389
REMARK  171  A    between atoms: _391  and  _393
REMARK  172  A    between atoms: _393  and  _394
REMARK  173  A    between atoms: _393  and  _396
REMARK  174  A    between atoms: _396  and  _397
REMARK  175  A    between atoms: _400  and  _402
REMARK  176  A    between atoms: _402  and  _403
REMARK  177  A    between atoms: _402  and  _405
REMARK  178  A    between atoms: _405  and  _406
REMARK  179  A    between atoms: _406  and  _407
REMARK  180  A    between atoms: _407  and  _408
REMARK  181  A    between atoms: _417  and  _419
REMARK  182  A    between atoms: _419  and  _420
REMARK  183  A    between atoms: _419  and  _422
REMARK  184  A    between atoms: _422  and  _423
REMARK  185  A    between atoms: _428  and  _429
REMARK  186  A    between atoms: _431  and  _433
REMARK  187  A    between atoms: _433  and  _434
REMARK  188  A    between atoms: _433  and  _436
REMARK  189  A    between atoms: _436  and  _437
REMARK  190  A    between atoms: _437  and  _438
REMARK  191  A    between atoms: _438  and  _439
REMARK  192  A    between atoms: _448  and  _450
REMARK  193  A    between atoms: _450  and  _451
REMARK  194  A    between atoms: _450  and  _453
REMARK  195  A    between atoms: _453  and  _454
REMARK  196  A    between atoms: _457  and  _459
REMARK  197  A    between atoms: _459  and  _460
REMARK  198  A    between atoms: _459  and  _462
REMARK  199  A    between atoms: _462  and  _463
REMARK  200  A    between atoms: _466  and  _468
REMARK  201  A    between atoms: _468  and  _469
REMARK  202  A    between atoms: _468  and  _471
REMARK  203  A    between atoms: _471  and  _472
REMARK  204  A    between atoms: _472  and  _473
REMARK  205  A    between atoms: _473  and  _474
REMARK  206  A    between atoms: _474  and  _475
REMARK  207  A    between atoms: _480  and  _481
REMARK  208  A    between atoms: _486  and  _488
REMARK  209  A    between atoms: _488  and  _489
REMARK  210  A    between atoms: _488  and  _491
REMARK  211  A    between atoms: _491  and  _492
REMARK  212  A    between atoms: _492  and  _493
REMARK  213  A    between atoms: _496  and  _498
REMARK  214  A    between atoms: _498  and  _499
REMARK  215  A    between atoms: _498  and  _501
REMARK  216  A    between atoms: _501  and  _502
REMARK  217  A    between atoms: _507  and  _509
REMARK  218  A    between atoms: _509  and  _510
REMARK  219  A    between atoms: _509  and  _512
REMARK  220  A    between atoms: _512  and  _513
REMARK  221  A    between atoms: _516  and  _518
REMARK  222  A    between atoms: _518  and  _519
REMARK  223  A    between atoms: _518  and  _521
REMARK  224  A    between atoms: _521  and  _522
REMARK  225  A    between atoms: _525  and  _527
REMARK  226  A    between atoms: _527  and  _528
REMARK  227  A    between atoms: _527  and  _530
REMARK  228  A    between atoms: _530  and  _531
REMARK  229  A    between atoms: _534  and  _536
REMARK  230  A    between atoms: _536  and  _537
REMARK  231  A    between atoms: _536  and  _539
REMARK  232  A    between atoms: _539  and  _540
REMARK  233  A    between atoms: _543  and  _545
REMARK  234  A    between atoms: _545  and  _546
REMARK  235  A    between atoms: _545  and  _548
REMARK  236  A    between atoms: _548  and  _549
REMARK  237  A    between atoms: _549  and  _550
REMARK  238  A    between atoms: _555  and  _557
REMARK  239  A    between atoms: _557  and  _558
REMARK  240  A    between atoms: _557  and  _560
REMARK  241  A    between atoms: _563  and  _565
REMARK  242  A    between atoms: _565  and  _566
REMARK  243  A    between atoms: _565  and  _568
REMARK  244  A    between atoms: _568  and  _569
REMARK  245  A    between atoms: _572  and  _574
REMARK  246  A    between atoms: _574  and  _575
REMARK  247  A    between atoms: _574  and  _577
REMARK  248  A    between atoms: _577  and  _578
REMARK  249  A    between atoms: _581  and  _583
REMARK  250  A    between atoms: _583  and  _584
REMARK  251  A    between atoms: _583  and  _586
REMARK  252  A    between atoms: _586  and  _587
REMARK  253  A    between atoms: _593  and  _595
REMARK  254  A    between atoms: _595  and  _596
REMARK  255  A    between atoms: _598  and  _600
REMARK  256  A    between atoms: _600  and  _601
REMARK  257  A    between atoms: _600  and  _603
REMARK  258  A    between atoms: _603  and  _604
REMARK  259  A    between atoms: _610  and  _612
REMARK  260  A    between atoms: _612  and  _613
REMARK  261  A    between atoms: _612  and  _615
REMARK  262  A    between atoms: _617  and  _619
REMARK  263  A    between atoms: _619  and  _620
REMARK  264  A    between atoms: _622  and  _624
REMARK  265  A    between atoms: _624  and  _625
REMARK  266  A    between atoms: _624  and  _627
REMARK  267  A    between atoms: _627  and  _628
REMARK  268  A    between atoms: _632  and  _633
REMARK  269  A    between atoms: _638  and  _640
REMARK  270  A    between atoms: _640  and  _641
REMARK  271  A    between atoms: _640  and  _643
REMARK  272  A    between atoms: _643  and  _644
REMARK  273  A    between atoms: _644  and  _645
REMARK  274  A    between atoms: _648  and  _650
REMARK  275  A    between atoms: _650  and  _651
REMARK  276  A    between atoms: _650  and  _653
REMARK  277  A    between atoms: _653  and  _654
REMARK  278  A    between atoms: _659  and  _660
REMARK  279  A    between atoms: _662  and  _664
REMARK  280  A    between atoms: _664  and  _665
REMARK  281  A    between atoms: _664  and  _667
REMARK  282  A    between atoms: _670  and  _672
REMARK  283  A    between atoms: _672  and  _673
REMARK  284  A    between atoms: _672  and  _675
REMARK  285  A    between atoms: _675  and  _676
REMARK  286  A    between atoms: _679  and  _681
REMARK  287  A    between atoms: _681  and  _682
REMARK  288  A    between atoms: _681  and  _684
REMARK  289  A    between atoms: _684  and  _685
REMARK  290  A    between atoms: _685  and  _686
REMARK  291  A    between atoms: _689  and  _691
REMARK  292  A    between atoms: _691  and  _692
REMARK  293  A    between atoms: _694  and  _696
REMARK  294  A    between atoms: _696  and  _697
REMARK  295  A    between atoms: _696  and  _699
REMARK  296  A    between atoms: _699  and  _700
REMARK  297  A    between atoms: _705  and  _706
REMARK  298  A    between atoms: _709  and  _710
REMARK  299  A    between atoms: _716  and  _717
REMARK  300  A    between atoms: _722  and  _724
REMARK  301  A    between atoms: _724  and  _725
REMARK  302  A    between atoms: _724  and  _727
REMARK  303  A    between atoms: _727  and  _728
REMARK  304  A    between atoms: _734  and  _736
REMARK  305  A    between atoms: _736  and  _737
REMARK  306  A    between atoms: _736  and  _739
REMARK  307  A    between atoms: _739  and  _740
REMARK  308  A    between atoms: _746  and  _748
REMARK  309  A    between atoms: _748  and  _749
REMARK  310  A    between atoms: _752  and  _754
REMARK  311  A    between atoms: _754  and  _755
REMARK  312  A    between atoms: _754  and  _757
REMARK  313  A    between atoms: _757  and  _758
REMARK                            x       y       z     vdW  Elec       q    Type
REMARK                         _______ _______ _______ _____ _____    ______ ____
ROOT
ATOM      1  O   HOH     1      18.465  20.904   5.663  0.00  0.00    +0.000 OA
ENDROOT
TORSDOF 0
REMARK  Name = ../refined-set-2016/3ag9/3ag9_pocket.pdb
REMARK  313 active torsions:
REMARK  status: ('A' for Active; 'I' for Inactive)
REMARK    1  A    between atoms: _1  and  _3
REMARK    2  A    between atoms: _3  and  _4
REMARK    3  A    between atoms: _3  and  _6
REMARK    4  A    between atoms: _6  and  _7
REMARK    5  A    between atoms: _10  and  _12
REMARK    6  A    between atoms: _12  and  _13
REMARK    7  A    between atoms: _12  and  _15
REMARK    8  A    between atoms: _15  and  _16
REMARK    9  A    between atoms: _19  and  _21
REMARK   10  A    between atoms: _21  and  _22
REMARK   11  A    between atoms: _24  and  _26
REMARK   12  A    between atoms: _26  and  _27
REMARK   13  A    between atoms: _26  and  _29
REMARK   14  A    between atoms: _29  and  _30
REMARK   15  A    between atoms: _33  and  _35
REMARK   16  A    between atoms: _35  and  _36
REMARK   17  A    between atoms: _38  and  _40
REMARK   18  A    between atoms: _40  and  _41
REMARK   19  A    between atoms: _40  and  _43
REMARK   20  A    between atoms: _43  and  _44
REMARK   21  A    between atoms: _46  and  _48
REMARK   22  A    between atoms: _48  and  _49
REMARK   23  A    between atoms: _48  and  _51
REMARK   24  A    between atoms: _51  and  _52
REMARK   25  A    between atoms: _58  and  _60
REMARK   26  A    between atoms: _60  and  _61
REMARK   27  A    between atoms: _63  and  _65
REMARK   28  A    between atoms: _65  and  _66
REMARK   29  A    between atoms: _65  and  _68
REMARK   30  A    between atoms: _68  and  _69
REMARK   31  A    between atoms: _69  and  _70
REMARK   32  A    between atoms: _70  and  _71
REMARK   33  A    between atoms: _80  and  _82
REMARK   34  A    between atoms: _82  and  _83
REMARK   35  A    between atoms: _82  and  _85
REMARK   36  A    between atoms: _88  and  _90
REMARK   37  A    between atoms: _90  and  _91
REMARK   38  A    between atoms: _90  and  _93
REMARK   39  A    between atoms: _93  and  _94
REMARK   40  A    between atoms: _94  and  _95
REMARK   41  A    between atoms: _97  and  _99
REMARK   42  A    between atoms: _99  and  _100
REMARK   43  A    between atoms: _99  and  _102
REMARK   44  A    between atoms: _102  and  _103
REMARK   45  A    between atoms: _106  and  _108
REMARK   46  A    between atoms: _108  and  _109
REMARK   47  A    between atoms: _108  and  _111
REMARK   48  A    between atoms: _111  and  _112
REMARK   49  A    between atoms: _117  and  _118
REMARK   50  A    between atoms: _120  and  _122
REMARK   51  A    between atoms: _122  and  _123
REMARK   52  A    between atoms: _126  and  _128
REMARK   53  A    between atoms: _128  and  _129
REMARK   54  A    between atoms: _128  and  _131
REMARK   55  A    between atoms: _131  and  _132
REMARK   56  A    between atoms: _132  and  _133
REMARK   57  A    between atoms: _135  and  _137
REMARK   58  A    between atoms: _137  and  _138
REMARK   59  A    between atoms: _137  and  _140
REMARK   60  A    between atoms: _140  and  _141
REMARK   61  A    between atoms: _141  and  _142
REMARK   62  A    between atoms: _142  and  _143
REMARK   63  A    between atoms: _143  and  _144
REMARK   64  A    between atoms: _148  and  _150
REMARK   65  A    between atoms: _150  and  _151
REMARK   66  A    between atoms: _150  and  _153
REMARK   67  A    between atoms: _153  and  _154
REMARK   68  A    between atoms: _157  and  _159
REMARK   69  A    between atoms: _159  and  _160
REMARK   70  A    between atoms: _159  and  _162
REMARK   71  A    between atoms: _162  and  _163
REMARK   72  A    between atoms: _166  and  _168
REMARK   73  A    between atoms: _168  and  _169
REMARK   74  A    between atoms: _168  and  _171
REMARK   75  A    between atoms: _171  and  _172
REMARK   76  A    between atoms: _175  and  _177
REMARK   77  A    between atoms: _177  and  _178
REMARK   78  A    between atoms: _177  and  _180
REMARK   79  A    between atoms: _180  and  _181
REMARK   80  A    between atoms: _181  and  _182
REMARK   81  A    between atoms: _182  and  _183
REMARK   82  A    between atoms: _183  and  _184
REMARK   83  A    between atoms: _188  and  _190
REMARK   84  A    between atoms: _190  and  _191
REMARK   85  A    between atoms: _190  and  _193
REMARK   86  A    between atoms: _196  and  _198
REMARK   87  A    between atoms: _198  and  _199
REMARK   88  A    between atoms: _198  and  _201
REMARK   89  A    between atoms: _201  and  _202
REMARK   90  A    between atoms: _205  and  _207
REMARK   91  A    between atoms: _207  and  _208
REMARK   92  A    between atoms: _207  and  _210
REMARK   93  A    between atoms: _210  and  _211
REMARK   94  A    between atoms: _211  and  _212
REMARK   95  A    between atoms: _217  and  _219
REMARK   96  A    between atoms: _219  and  _220
REMARK   97  A    between atoms: _219  and  _222
REMARK   98  A    between atoms: _222  and  _223
REMARK   99  A    between atoms: _228  and  _230
REMARK  100  A    between atoms: _230  and  _231
REMARK  101  A    between atoms: _230  and  _233
REMARK  102  A    between atoms: _233  and  _234
REMARK  103  A    between atoms: _237  and  _239
REMARK  104  A    between atoms: _239  and  _240
REMARK  105  A    between atoms: _239  and  _242
REMARK  106  A    between atoms: _242  and  _243
REMARK  107  A    between atoms: _243  and  _244
REMARK  108  A    between atoms: _247  and  _249
REMARK  109  A    between atoms: _249  and  _250
REMARK  110  A    between atoms: _249  and  _252
REMARK  111  A    between atoms: _255  and  _257
REMARK  112  A    between atoms: _257  and  _258
REMARK  113  A    between atoms: _257  and  _260
REMARK  114  A    between atoms: _260  and  _261
REMARK  115  A    between atoms: _261  and  _262
REMARK  116  A    between atoms: _262  and  _263
REMARK  117  A    between atoms: _263  and  _264
REMARK  118  A    between atoms: _268  and  _270
REMARK  119  A    between atoms: _270  and  _271
REMARK  120  A    between atoms: _270  and  _273
REMARK  121  A    between atoms: _273  and  _274
REMARK  122  A    between atoms: _277  and  _279
REMARK  123  A    between atoms: _279  and  _280
REMARK  124  A    between atoms: _279  and  _282
REMARK  125  A    between atoms: _282  and  _283
REMARK  126  A    between atoms: _283  and  _284
REMARK  127  A    between atoms: _286  and  _288
REMARK  128  A    between atoms: _288  and  _289
REMARK  129  A    between atoms: _288  and  _291
REMARK  130  A    between atoms: _294  and  _296
REMARK  131  A    between atoms: _296  and  _297
REMARK  132  A    between atoms: _296  and  _299
REMARK  133  A    between atoms: _299  and  _300
REMARK  134  A    between atoms: _300  and  _301
REMARK  135  A    between atoms: _303  and  _305
REMARK  136  A    between atoms: _305  and  _306
REMARK  137  A    between atoms: _305  and  _308
REMARK  138  A    between atoms: _308  and  _309
REMARK  139  A    between atoms: _309  and  _310
REMARK  140  A    between atoms: _313  and  _315
REMARK  141  A    between atoms: _315  and  _316
REMARK  142  A    between atoms: _315  and  _318
REMARK  143  A    between atoms: _318  and  _319
REMARK  144  A    between atoms: _324  and  _325
REMARK  145  A    between atoms: _327  and  _329
REMARK  146  A    between atoms: _329  and  _330
REMARK  147  A    between atoms: _329  and  _332
REMARK  148  A    between atoms: _336  and  _337
REMARK  149  A    between atoms: _342  and  _344
REMARK  150  A    between atoms: _344  and  _345
REMARK  151  A    between atoms: _347  and  _349
REMARK  152  A    between atoms: _349  and  _350
REMARK  153  A    between atoms: _352  and  _354
REMARK  154  A    between atoms: _354  and  _355
REMARK  155  A    between atoms: _354  and  _357
REMARK  156  A    between atoms: _357  and  _358
REMARK  157  A    between atoms: _358  and  _359
REMARK  158  A    between atoms: _362  and  _364
REMARK  159  A    between atoms: _364  and  _365
REMARK  160  A    between atoms: _364  and  _367
REMARK  161  A    between atoms: _367  and  _368
REMARK  162  A    between atoms: _368  and  _369
REMARK  163  A    between atoms: _371  and  _373
REMARK  164  A    between atoms: _373  and  _374
REMARK  165  A    between atoms: _373  and  _376
REMARK  166  A    between atoms: _376  and  _377
REMARK  167  A    between atoms: _383  and  _385
REMARK  168  A    between atoms: _385  and  _386
REMARK  169  A    between atoms: _385  and  _388
REMARK  170  A    between atoms: _388  and  _389
REMARK  171  A    between atoms: _391  and  _393
REMARK  172  A    between atoms: _393  and  _394
REMARK  173  A    between atoms: _393  and  _396
REMARK  174  A    between atoms: _396  and  _397
REMARK  175  A    between atoms: _400  and  _402
REMARK  176  A    between atoms: _402  and  _403
REMARK  177  A    between atoms: _402  and  _405
REMARK  178  A    between atoms: _405  and  _406
REMARK  179  A    between atoms: _406  and  _407
REMARK  180  A    between atoms: _407  and  _408
REMARK  181  A    between atoms: _417  and  _419
REMARK  182  A    between atoms: _419  and  _420
REMARK  183  A    between atoms: _419  and  _422
REMARK  184  A    between atoms: _422  and  _423
REMARK  185  A    between atoms: _428  and  _429
REMARK  186  A    between atoms: _431  and  _433
REMARK  187  A    between atoms: _433  and  _434
REMARK  188  A    between atoms: _433  and  _436
REMARK  189  A    between atoms: _436  and  _437
REMARK  190  A    between atoms: _437  and  _438
REMARK  191  A    between atoms: _438  and  _439
REMARK  192  A    between atoms: _448  and  _450
REMARK  193  A    between atoms: _450  and  _451
REMARK  194  A    between atoms: _450  and  _453
REMARK  195  A    between atoms: _453  and  _454
REMARK  196  A    between atoms: _457  and  _459
REMARK  197  A    between atoms: _459  and  _460
REMARK  198  A    between atoms: _459  and  _462
REMARK  199  A    between atoms: _462  and  _463
REMARK  200  A    between atoms: _466  and  _468
REMARK  201  A    between atoms: _468  and  _469
REMARK  202  A    between atoms: _468  and  _471
REMARK  203  A    between atoms: _471  and  _472
REMARK  204  A    between atoms: _472  and  _473
REMARK  205  A    between atoms: _473  and  _474
REMARK  206  A    between atoms: _474  and  _475
REMARK  207  A    between atoms: _480  and  _481
REMARK  208  A    between atoms: _486  and  _488
REMARK  209  A    between atoms: _488  and  _489
REMARK  210  A    between atoms: _488  and  _491
REMARK  211  A    between atoms: _491  and  _492
REMARK  212  A    between atoms: _492  and  _493
REMARK  213  A    between atoms: _496  and  _498
REMARK  214  A    between atoms: _498  and  _499
REMARK  215  A    between atoms: _498  and  _501
REMARK  216  A    between atoms: _501  and  _502
REMARK  217  A    between atoms: _507  and  _509
REMARK  218  A    between atoms: _509  and  _510
REMARK  219  A    between atoms: _509  and  _512
REMARK  220  A    between atoms: _512  and  _513
REMARK  221  A    between atoms: _516  and  _518
REMARK  222  A    between atoms: _518  and  _519
REMARK  223  A    between atoms: _518  and  _521
REMARK  224  A    between atoms: _521  and  _522
REMARK  225  A    between atoms: _525  and  _527
REMARK  226  A    between atoms: _527  and  _528
REMARK  227  A    between atoms: _527  and  _530
REMARK  228  A    between atoms: _530  and  _531
REMARK  229  A    between atoms: _534  and  _536
REMARK  230  A    between atoms: _536  and  _537
REMARK  231  A    between atoms: _536  and  _539
REMARK  232  A    between atoms: _539  and  _540
REMARK  233  A    between atoms: _543  and  _545
REMARK  234  A    between atoms: _545  and  _546
REMARK  235  A    between atoms: _545  and  _548
REMARK  236  A    between atoms: _548  and  _549
REMARK  237  A    between atoms: _549  and  _550
REMARK  238  A    between atoms: _555  and  _557
REMARK  239  A    between atoms: _557  and  _558
REMARK  240  A    between atoms: _557  and  _560
REMARK  241  A    between atoms: _563  and  _565
REMARK  242  A    between atoms: _565  and  _566
REMARK  243  A    between atoms: _565  and  _568
REMARK  244  A    between atoms: _568  and  _569
REMARK  245  A    between atoms: _572  and  _574
REMARK  246  A    between atoms: _574  and  _575
REMARK  247  A    between atoms: _574  and  _577
REMARK  248  A    between atoms: _577  and  _578
REMARK  249  A    between atoms: _581  and  _583
REMARK  250  A    between atoms: _583  and  _584
REMARK  251  A    between atoms: _583  and  _586
REMARK  252  A    between atoms: _586  and  _587
REMARK  253  A    between atoms: _593  and  _595
REMARK  254  A    between atoms: _595  and  _596
REMARK  255  A    between atoms: _598  and  _600
REMARK  256  A    between atoms: _600  and  _601
REMARK  257  A    between atoms: _600  and  _603
REMARK  258  A    between atoms: _603  and  _604
REMARK  259  A    between atoms: _610  and  _612
REMARK  260  A    between atoms: _612  and  _613
REMARK  261  A    between atoms: _612  and  _615
REMARK  262  A    between atoms: _617  and  _619
REMARK  263  A    between atoms: _619  and  _620
REMARK  264  A    between atoms: _622  and  _624
REMARK  265  A    between atoms: _624  and  _625
REMARK  266  A    between atoms: _624  and  _627
REMARK  267  A    between atoms: _627  and  _628
REMARK  268  A    between atoms: _632  and  _633
REMARK  269  A    between atoms: _638  and  _640
REMARK  270  A    between atoms: _640  and  _641
REMARK  271  A    between atoms: _640  and  _643
REMARK  272  A    between atoms: _643  and  _644
REMARK  273  A    between atoms: _644  and  _645
REMARK  274  A    between atoms: _648  and  _650
REMARK  275  A    between atoms: _650  and  _651
REMARK  276  A    between atoms: _650  and  _653
REMARK  277  A    between atoms: _653  and  _654
REMARK  278  A    between atoms: _659  and  _660
REMARK  279  A    between atoms: _662  and  _664
REMARK  280  A    between atoms: _664  and  _665
REMARK  281  A    between atoms: _664  and  _667
REMARK  282  A    between atoms: _670  and  _672
REMARK  283  A    between atoms: _672  and  _673
REMARK  284  A    between atoms: _672  and  _675
REMARK  285  A    between atoms: _675  and  _676
REMARK  286  A    between atoms: _679  and  _681
REMARK  287  A    between atoms: _681  and  _682
REMARK  288  A    between atoms: _681  and  _684
REMARK  289  A    between atoms: _684  and  _685
REMARK  290  A    between atoms: _685  and  _686
REMARK  291  A    between atoms: _689  and  _691
REMARK  292  A    between atoms: _691  and  _692
REMARK  293  A    between atoms: _694  and  _696
REMARK  294  A    between atoms: _696  and  _697
REMARK  295  A    between atoms: _696  and  _699
REMARK  296  A    between atoms: _699  and  _700
REMARK  297  A    between atoms: _705  and  _706
REMARK  298  A    between atoms: _709  and  _710
REMARK  299  A    between atoms: _716  and  _717
REMARK  300  A    between atoms: _722  and  _724
REMARK  301  A    between atoms: _724  and  _725
REMARK  302  A    between atoms: _724  and  _727
REMARK  303  A    between atoms: _727  and  _728
REMARK  304  A    between atoms: _734  and  _736
REMARK  305  A    between atoms: _736  and  _737
REMARK  306  A    between atoms: _736  and  _739
REMARK  307  A    between atoms: _739  and  _740
REMARK  308  A    between atoms: _746  and  _748
REMARK  309  A    between atoms: _748  and  _749
REMARK  310  A    between atoms: _752  and  _754
REMARK  311  A    between atoms: _754  and  _755
REMARK  312  A    between atoms: _754  and  _757
REMARK  313  A    between atoms: _757  and  _758
REMARK                            x       y       z     vdW  Elec       q    Type
REMARK                         _______ _______ _______ _____ _____    ______ ____
ROOT
ATOM      1  O   HOH     1      17.210  13.112   6.980  0.00  0.00    +0.000 OA
ENDROOT
TORSDOF 0
REMARK  Name = ../refined-set-2016/3ag9/3ag9_pocket.pdb
REMARK  313 active torsions:
REMARK  status: ('A' for Active; 'I' for Inactive)
REMARK    1  A    between atoms: _1  and  _3
REMARK    2  A    between atoms: _3  and  _4
REMARK    3  A    between atoms: _3  and  _6
REMARK    4  A    between atoms: _6  and  _7
REMARK    5  A    between atoms: _10  and  _12
REMARK    6  A    between atoms: _12  and  _13
REMARK    7  A    between atoms: _12  and  _15
REMARK    8  A    between atoms: _15  and  _16
REMARK    9  A    between atoms: _19  and  _21
REMARK   10  A    between atoms: _21  and  _22
REMARK   11  A    between atoms: _24  and  _26
REMARK   12  A    between atoms: _26  and  _27
REMARK   13  A    between atoms: _26  and  _29
REMARK   14  A    between atoms: _29  and  _30
REMARK   15  A    between atoms: _33  and  _35
REMARK   16  A    between atoms: _35  and  _36
REMARK   17  A    between atoms: _38  and  _40
REMARK   18  A    between atoms: _40  and  _41
REMARK   19  A    between atoms: _40  and  _43
REMARK   20  A    between atoms: _43  and  _44
REMARK   21  A    between atoms: _46  and  _48
REMARK   22  A    between atoms: _48  and  _49
REMARK   23  A    between atoms: _48  and  _51
REMARK   24  A    between atoms: _51  and  _52
REMARK   25  A    between atoms: _58  and  _60
REMARK   26  A    between atoms: _60  and  _61
REMARK   27  A    between atoms: _63  and  _65
REMARK   28  A    between atoms: _65  and  _66
REMARK   29  A    between atoms: _65  and  _68
REMARK   30  A    between atoms: _68  and  _69
REMARK   31  A    between atoms: _69  and  _70
REMARK   32  A    between atoms: _70  and  _71
REMARK   33  A    between atoms: _80  and  _82
REMARK   34  A    between atoms: _82  and  _83
REMARK   35  A    between atoms: _82  and  _85
REMARK   36  A    between atoms: _88  and  _90
REMARK   37  A    between atoms: _90  and  _91
REMARK   38  A    between atoms: _90  and  _93
REMARK   39  A    between atoms: _93  and  _94
REMARK   40  A    between atoms: _94  and  _95
REMARK   41  A    between atoms: _97  and  _99
REMARK   42  A    between atoms: _99  and  _100
REMARK   43  A    between atoms: _99  and  _102
REMARK   44  A    between atoms: _102  and  _103
REMARK   45  A    between atoms: _106  and  _108
REMARK   46  A    between atoms: _108  and  _109
REMARK   47  A    between atoms: _108  and  _111
REMARK   48  A    between atoms: _111  and  _112
REMARK   49  A    between atoms: _117  and  _118
REMARK   50  A    between atoms: _120  and  _122
REMARK   51  A    between atoms: _122  and  _123
REMARK   52  A    between atoms: _126  and  _128
REMARK   53  A    between atoms: _128  and  _129
REMARK   54  A    between atoms: _128  and  _131
REMARK   55  A    between atoms: _131  and  _132
REMARK   56  A    between atoms: _132  and  _133
REMARK   57  A    between atoms: _135  and  _137
REMARK   58  A    between atoms: _137  and  _138
REMARK   59  A    between atoms: _137  and  _140
REMARK   60  A    between atoms: _140  and  _141
REMARK   61  A    between atoms: _141  and  _142
REMARK   62  A    between atoms: _142  and  _143
REMARK   63  A    between atoms: _143  and  _144
REMARK   64  A    between atoms: _148  and  _150
REMARK   65  A    between atoms: _150  and  _151
REMARK   66  A    between atoms: _150  and  _153
REMARK   67  A    between atoms: _153  and  _154
REMARK   68  A    between atoms: _157  and  _159
REMARK   69  A    between atoms: _159  and  _160
REMARK   70  A    between atoms: _159  and  _162
REMARK   71  A    between atoms: _162  and  _163
REMARK   72  A    between atoms: _166  and  _168
REMARK   73  A    between atoms: _168  and  _169
REMARK   74  A    between atoms: _168  and  _171
REMARK   75  A    between atoms: _171  and  _172
REMARK   76  A    between atoms: _175  and  _177
REMARK   77  A    between atoms: _177  and  _178
REMARK   78  A    between atoms: _177  and  _180
REMARK   79  A    between atoms: _180  and  _181
REMARK   80  A    between atoms: _181  and  _182
REMARK   81  A    between atoms: _182  and  _183
REMARK   82  A    between atoms: _183  and  _184
REMARK   83  A    between atoms: _188  and  _190
REMARK   84  A    between atoms: _190  and  _191
REMARK   85  A    between atoms: _190  and  _193
REMARK   86  A    between atoms: _196  and  _198
REMARK   87  A    between atoms: _198  and  _199
REMARK   88  A    between atoms: _198  and  _201
REMARK   89  A    between atoms: _201  and  _202
REMARK   90  A    between atoms: _205  and  _207
REMARK   91  A    between atoms: _207  and  _208
REMARK   92  A    between atoms: _207  and  _210
REMARK   93  A    between atoms: _210  and  _211
REMARK   94  A    between atoms: _211  and  _212
REMARK   95  A    between atoms: _217  and  _219
REMARK   96  A    between atoms: _219  and  _220
REMARK   97  A    between atoms: _219  and  _222
REMARK   98  A    between atoms: _222  and  _223
REMARK   99  A    between atoms: _228  and  _230
REMARK  100  A    between atoms: _230  and  _231
REMARK  101  A    between atoms: _230  and  _233
REMARK  102  A    between atoms: _233  and  _234
REMARK  103  A    between atoms: _237  and  _239
REMARK  104  A    between atoms: _239  and  _240
REMARK  105  A    between atoms: _239  and  _242
REMARK  106  A    between atoms: _242  and  _243
REMARK  107  A    between atoms: _243  and  _244
REMARK  108  A    between atoms: _247  and  _249
REMARK  109  A    between atoms: _249  and  _250
REMARK  110  A    between atoms: _249  and  _252
REMARK  111  A    between atoms: _255  and  _257
REMARK  112  A    between atoms: _257  and  _258
REMARK  113  A    between atoms: _257  and  _260
REMARK  114  A    between atoms: _260  and  _261
REMARK  115  A    between atoms: _261  and  _262
REMARK  116  A    between atoms: _262  and  _263
REMARK  117  A    between atoms: _263  and  _264
REMARK  118  A    between atoms: _268  and  _270
REMARK  119  A    between atoms: _270  and  _271
REMARK  120  A    between atoms: _270  and  _273
REMARK  121  A    between atoms: _273  and  _274
REMARK  122  A    between atoms: _277  and  _279
REMARK  123  A    between atoms: _279  and  _280
REMARK  124  A    between atoms: _279  and  _282
REMARK  125  A    between atoms: _282  and  _283
REMARK  126  A    between atoms: _283  and  _284
REMARK  127  A    between atoms: _286  and  _288
REMARK  128  A    between atoms: _288  and  _289
REMARK  129  A    between atoms: _288  and  _291
REMARK  130  A    between atoms: _294  and  _296
REMARK  131  A    between atoms: _296  and  _297
REMARK  132  A    between atoms: _296  and  _299
REMARK  133  A    between atoms: _299  and  _300
REMARK  134  A    between atoms: _300  and  _301
REMARK  135  A    between atoms: _303  and  _305
REMARK  136  A    between atoms: _305  and  _306
REMARK  137  A    between atoms: _305  and  _308
REMARK  138  A    between atoms: _308  and  _309
REMARK  139  A    between atoms: _309  and  _310
REMARK  140  A    between atoms: _313  and  _315
REMARK  141  A    between atoms: _315  and  _316
REMARK  142  A    between atoms: _315  and  _318
REMARK  143  A    between atoms: _318  and  _319
REMARK  144  A    between atoms: _324  and  _325
REMARK  145  A    between atoms: _327  and  _329
REMARK  146  A    between atoms: _329  and  _330
REMARK  147  A    between atoms: _329  and  _332
REMARK  148  A    between atoms: _336  and  _337
REMARK  149  A    between atoms: _342  and  _344
REMARK  150  A    between atoms: _344  and  _345
REMARK  151  A    between atoms: _347  and  _349
REMARK  152  A    between atoms: _349  and  _350
REMARK  153  A    between atoms: _352  and  _354
REMARK  154  A    between atoms: _354  and  _355
REMARK  155  A    between atoms: _354  and  _357
REMARK  156  A    between atoms: _357  and  _358
REMARK  157  A    between atoms: _358  and  _359
REMARK  158  A    between atoms: _362  and  _364
REMARK  159  A    between atoms: _364  and  _365
REMARK  160  A    between atoms: _364  and  _367
REMARK  161  A    between atoms: _367  and  _368
REMARK  162  A    between atoms: _368  and  _369
REMARK  163  A    between atoms: _371  and  _373
REMARK  164  A    between atoms: _373  and  _374
REMARK  165  A    between atoms: _373  and  _376
REMARK  166  A    between atoms: _376  and  _377
REMARK  167  A    between atoms: _383  and  _385
REMARK  168  A    between atoms: _385  and  _386
REMARK  169  A    between atoms: _385  and  _388
REMARK  170  A    between atoms: _388  and  _389
REMARK  171  A    between atoms: _391  and  _393
REMARK  172  A    between atoms: _393  and  _394
REMARK  173  A    between atoms: _393  and  _396
REMARK  174  A    between atoms: _396  and  _397
REMARK  175  A    between atoms: _400  and  _402
REMARK  176  A    between atoms: _402  and  _403
REMARK  177  A    between atoms: _402  and  _405
REMARK  178  A    between atoms: _405  and  _406
REMARK  179  A    between atoms: _406  and  _407
REMARK  180  A    between atoms: _407  and  _408
REMARK  181  A    between atoms: _417  and  _419
REMARK  182  A    between atoms: _419  and  _420
REMARK  183  A    between atoms: _419  and  _422
REMARK  184  A    between atoms: _422  and  _423
REMARK  185  A    between atoms: _428  and  _429
REMARK  186  A    between atoms: _431  and  _433
REMARK  187  A    between atoms: _433  and  _434
REMARK  188  A    between atoms: _433  and  _436
REMARK  189  A    between atoms: _436  and  _437
REMARK  190  A    between atoms: _437  and  _438
REMARK  191  A    between atoms: _438  and  _439
REMARK  192  A    between atoms: _448  and  _450
REMARK  193  A    between atoms: _450  and  _451
REMARK  194  A    between atoms: _450  and  _453
REMARK  195  A    between atoms: _453  and  _454
REMARK  196  A    between atoms: _457  and  _459
REMARK  197  A    between atoms: _459  and  _460
REMARK  198  A    between atoms: _459  and  _462
REMARK  199  A    between atoms: _462  and  _463
REMARK  200  A    between atoms: _466  and  _468
REMARK  201  A    between atoms: _468  and  _469
REMARK  202  A    between atoms: _468  and  _471
REMARK  203  A    between atoms: _471  and  _472
REMARK  204  A    between atoms: _472  and  _473
REMARK  205  A    between atoms: _473  and  _474
REMARK  206  A    between atoms: _474  and  _475
REMARK  207  A    between atoms: _480  and  _481
REMARK  208  A    between atoms: _486  and  _488
REMARK  209  A    between atoms: _488  and  _489
REMARK  210  A    between atoms: _488  and  _491
REMARK  211  A    between atoms: _491  and  _492
REMARK  212  A    between atoms: _492  and  _493
REMARK  213  A    between atoms: _496  and  _498
REMARK  214  A    between atoms: _498  and  _499
REMARK  215  A    between atoms: _498  and  _501
REMARK  216  A    between atoms: _501  and  _502
REMARK  217  A    between atoms: _507  and  _509
REMARK  218  A    between atoms: _509  and  _510
REMARK  219  A    between atoms: _509  and  _512
REMARK  220  A    between atoms: _512  and  _513
REMARK  221  A    between atoms: _516  and  _518
REMARK  222  A    between atoms: _518  and  _519
REMARK  223  A    between atoms: _518  and  _521
REMARK  224  A    between atoms: _521  and  _522
REMARK  225  A    between atoms: _525  and  _527
REMARK  226  A    between atoms: _527  and  _528
REMARK  227  A    between atoms: _527  and  _530
REMARK  228  A    between atoms: _530  and  _531
REMARK  229  A    between atoms: _534  and  _536
REMARK  230  A    between atoms: _536  and  _537
REMARK  231  A    between atoms: _536  and  _539
REMARK  232  A    between atoms: _539  and  _540
REMARK  233  A    between atoms: _543  and  _545
REMARK  234  A    between atoms: _545  and  _546
REMARK  235  A    between atoms: _545  and  _548
REMARK  236  A    between atoms: _548  and  _549
REMARK  237  A    between atoms: _549  and  _550
REMARK  238  A    between atoms: _555  and  _557
REMARK  239  A    between atoms: _557  and  _558
REMARK  240  A    between atoms: _557  and  _560
REMARK  241  A    between atoms: _563  and  _565
REMARK  242  A    between atoms: _565  and  _566
REMARK  243  A    between atoms: _565  and  _568
REMARK  244  A    between atoms: _568  and  _569
REMARK  245  A    between atoms: _572  and  _574
REMARK  246  A    between atoms: _574  and  _575
REMARK  247  A    between atoms: _574  and  _577
REMARK  248  A    between atoms: _577  and  _578
REMARK  249  A    between atoms: _581  and  _583
REMARK  250  A    between atoms: _583  and  _584
REMARK  251  A    between atoms: _583  and  _586
REMARK  252  A    between atoms: _586  and  _587
REMARK  253  A    between atoms: _593  and  _595
REMARK  254  A    between atoms: _595  and  _596
REMARK  255  A    between atoms: _598  and  _600
REMARK  256  A    between atoms: _600  and  _601
REMARK  257  A    between atoms: _600  and  _603
REMARK  258  A    between atoms: _603  and  _604
REMARK  259  A    between atoms: _610  and  _612
REMARK  260  A    between atoms: _612  and  _613
REMARK  261  A    between atoms: _612  and  _615
REMARK  262  A    between atoms: _617  and  _619
REMARK  263  A    between atoms: _619  and  _620
REMARK  264  A    between atoms: _622  and  _624
REMARK  265  A    between atoms: _624  and  _625
REMARK  266  A    between atoms: _624  and  _627
REMARK  267  A    between atoms: _627  and  _628
REMARK  268  A    between atoms: _632  and  _633
REMARK  269  A    between atoms: _638  and  _640
REMARK  270  A    between atoms: _640  and  _641
REMARK  271  A    between atoms: _640  and  _643
REMARK  272  A    between atoms: _643  and  _644
REMARK  273  A    between atoms: _644  and  _645
REMARK  274  A    between atoms: _648  and  _650
REMARK  275  A    between atoms: _650  and  _651
REMARK  276  A    between atoms: _650  and  _653
REMARK  277  A    between atoms: _653  and  _654
REMARK  278  A    between atoms: _659  and  _660
REMARK  279  A    between atoms: _662  and  _664
REMARK  280  A    between atoms: _664  and  _665
REMARK  281  A    between atoms: _664  and  _667
REMARK  282  A    between atoms: _670  and  _672
REMARK  283  A    between atoms: _672  and  _673
REMARK  284  A    between atoms: _672  and  _675
REMARK  285  A    between atoms: _675  and  _676
REMARK  286  A    between atoms: _679  and  _681
REMARK  287  A    between atoms: _681  and  _682
REMARK  288  A    between atoms: _681  and  _684
REMARK  289  A    between atoms: _684  and  _685
REMARK  290  A    between atoms: _685  and  _686
REMARK  291  A    between atoms: _689  and  _691
REMARK  292  A    between atoms: _691  and  _692
REMARK  293  A    between atoms: _694  and  _696
REMARK  294  A    between atoms: _696  and  _697
REMARK  295  A    between atoms: _696  and  _699
REMARK  296  A    between atoms: _699  and  _700
REMARK  297  A    between atoms: _705  and  _706
REMARK  298  A    between atoms: _709  and  _710
REMARK  299  A    between atoms: _716  and  _717
REMARK  300  A    between atoms: _722  and  _724
REMARK  301  A    between atoms: _724  and  _725
REMARK  302  A    between atoms: _724  and  _727
REMARK  303  A    between atoms: _727  and  _728
REMARK  304  A    between atoms: _734  and  _736
REMARK  305  A    between atoms: _736  and  _737
REMARK  306  A    between atoms: _736  and  _739
REMARK  307  A    between atoms: _739  and  _740
REMARK  308  A    between atoms: _746  and  _748
REMARK  309  A    between atoms: _748  and  _749
REMARK  310  A    between atoms: _752  and  _754
REMARK  311  A    between atoms: _754  and  _755
REMARK  312  A    between atoms: _754  and  _757
REMARK  313  A    between atoms: _757  and  _758
REMARK                            x       y       z     vdW  Elec       q    Type
REMARK                         _______ _______ _______ _____ _____    ______ ____
ROOT
ATOM      1  O   HOH     1      23.071   6.184  14.574  0.00  0.00    +0.000 OA
ENDROOT
TORSDOF 0
REMARK  Name = ../refined-set-2016/3ag9/3ag9_pocket.pdb
REMARK  313 active torsions:
REMARK  status: ('A' for Active; 'I' for Inactive)
REMARK    1  A    between atoms: _1  and  _3
REMARK    2  A    between atoms: _3  and  _4
REMARK    3  A    between atoms: _3  and  _6
REMARK    4  A    between atoms: _6  and  _7
REMARK    5  A    between atoms: _10  and  _12
REMARK    6  A    between atoms: _12  and  _13
REMARK    7  A    between atoms: _12  and  _15
REMARK    8  A    between atoms: _15  and  _16
REMARK    9  A    between atoms: _19  and  _21
REMARK   10  A    between atoms: _21  and  _22
REMARK   11  A    between atoms: _24  and  _26
REMARK   12  A    between atoms: _26  and  _27
REMARK   13  A    between atoms: _26  and  _29
REMARK   14  A    between atoms: _29  and  _30
REMARK   15  A    between atoms: _33  and  _35
REMARK   16  A    between atoms: _35  and  _36
REMARK   17  A    between atoms: _38  and  _40
REMARK   18  A    between atoms: _40  and  _41
REMARK   19  A    between atoms: _40  and  _43
REMARK   20  A    between atoms: _43  and  _44
REMARK   21  A    between atoms: _46  and  _48
REMARK   22  A    between atoms: _48  and  _49
REMARK   23  A    between atoms: _48  and  _51
REMARK   24  A    between atoms: _51  and  _52
REMARK   25  A    between atoms: _58  and  _60
REMARK   26  A    between atoms: _60  and  _61
REMARK   27  A    between atoms: _63  and  _65
REMARK   28  A    between atoms: _65  and  _66
REMARK   29  A    between atoms: _65  and  _68
REMARK   30  A    between atoms: _68  and  _69
REMARK   31  A    between atoms: _69  and  _70
REMARK   32  A    between atoms: _70  and  _71
REMARK   33  A    between atoms: _80  and  _82
REMARK   34  A    between atoms: _82  and  _83
REMARK   35  A    between atoms: _82  and  _85
REMARK   36  A    between atoms: _88  and  _90
REMARK   37  A    between atoms: _90  and  _91
REMARK   38  A    between atoms: _90  and  _93
REMARK   39  A    between atoms: _93  and  _94
REMARK   40  A    between atoms: _94  and  _95
REMARK   41  A    between atoms: _97  and  _99
REMARK   42  A    between atoms: _99  and  _100
REMARK   43  A    between atoms: _99  and  _102
REMARK   44  A    between atoms: _102  and  _103
REMARK   45  A    between atoms: _106  and  _108
REMARK   46  A    between atoms: _108  and  _109
REMARK   47  A    between atoms: _108  and  _111
REMARK   48  A    between atoms: _111  and  _112
REMARK   49  A    between atoms: _117  and  _118
REMARK   50  A    between atoms: _120  and  _122
REMARK   51  A    between atoms: _122  and  _123
REMARK   52  A    between atoms: _126  and  _128
REMARK   53  A    between atoms: _128  and  _129
REMARK   54  A    between atoms: _128  and  _131
REMARK   55  A    between atoms: _131  and  _132
REMARK   56  A    between atoms: _132  and  _133
REMARK   57  A    between atoms: _135  and  _137
REMARK   58  A    between atoms: _137  and  _138
REMARK   59  A    between atoms: _137  and  _140
REMARK   60  A    between atoms: _140  and  _141
REMARK   61  A    between atoms: _141  and  _142
REMARK   62  A    between atoms: _142  and  _143
REMARK   63  A    between atoms: _143  and  _144
REMARK   64  A    between atoms: _148  and  _150
REMARK   65  A    between atoms: _150  and  _151
REMARK   66  A    between atoms: _150  and  _153
REMARK   67  A    between atoms: _153  and  _154
REMARK   68  A    between atoms: _157  and  _159
REMARK   69  A    between atoms: _159  and  _160
REMARK   70  A    between atoms: _159  and  _162
REMARK   71  A    between atoms: _162  and  _163
REMARK   72  A    between atoms: _166  and  _168
REMARK   73  A    between atoms: _168  and  _169
REMARK   74  A    between atoms: _168  and  _171
REMARK   75  A    between atoms: _171  and  _172
REMARK   76  A    between atoms: _175  and  _177
REMARK   77  A    between atoms: _177  and  _178
REMARK   78  A    between atoms: _177  and  _180
REMARK   79  A    between atoms: _180  and  _181
REMARK   80  A    between atoms: _181  and  _182
REMARK   81  A    between atoms: _182  and  _183
REMARK   82  A    between atoms: _183  and  _184
REMARK   83  A    between atoms: _188  and  _190
REMARK   84  A    between atoms: _190  and  _191
REMARK   85  A    between atoms: _190  and  _193
REMARK   86  A    between atoms: _196  and  _198
REMARK   87  A    between atoms: _198  and  _199
REMARK   88  A    between atoms: _198  and  _201
REMARK   89  A    between atoms: _201  and  _202
REMARK   90  A    between atoms: _205  and  _207
REMARK   91  A    between atoms: _207  and  _208
REMARK   92  A    between atoms: _207  and  _210
REMARK   93  A    between atoms: _210  and  _211
REMARK   94  A    between atoms: _211  and  _212
REMARK   95  A    between atoms: _217  and  _219
REMARK   96  A    between atoms: _219  and  _220
REMARK   97  A    between atoms: _219  and  _222
REMARK   98  A    between atoms: _222  and  _223
REMARK   99  A    between atoms: _228  and  _230
REMARK  100  A    between atoms: _230  and  _231
REMARK  101  A    between atoms: _230  and  _233
REMARK  102  A    between atoms: _233  and  _234
REMARK  103  A    between atoms: _237  and  _239
REMARK  104  A    between atoms: _239  and  _240
REMARK  105  A    between atoms: _239  and  _242
REMARK  106  A    between atoms: _242  and  _243
REMARK  107  A    between atoms: _243  and  _244
REMARK  108  A    between atoms: _247  and  _249
REMARK  109  A    between atoms: _249  and  _250
REMARK  110  A    between atoms: _249  and  _252
REMARK  111  A    between atoms: _255  and  _257
REMARK  112  A    between atoms: _257  and  _258
REMARK  113  A    between atoms: _257  and  _260
REMARK  114  A    between atoms: _260  and  _261
REMARK  115  A    between atoms: _261  and  _262
REMARK  116  A    between atoms: _262  and  _263
REMARK  117  A    between atoms: _263  and  _264
REMARK  118  A    between atoms: _268  and  _270
REMARK  119  A    between atoms: _270  and  _271
REMARK  120  A    between atoms: _270  and  _273
REMARK  121  A    between atoms: _273  and  _274
REMARK  122  A    between atoms: _277  and  _279
REMARK  123  A    between atoms: _279  and  _280
REMARK  124  A    between atoms: _279  and  _282
REMARK  125  A    between atoms: _282  and  _283
REMARK  126  A    between atoms: _283  and  _284
REMARK  127  A    between atoms: _286  and  _288
REMARK  128  A    between atoms: _288  and  _289
REMARK  129  A    between atoms: _288  and  _291
REMARK  130  A    between atoms: _294  and  _296
REMARK  131  A    between atoms: _296  and  _297
REMARK  132  A    between atoms: _296  and  _299
REMARK  133  A    between atoms: _299  and  _300
REMARK  134  A    between atoms: _300  and  _301
REMARK  135  A    between atoms: _303  and  _305
REMARK  136  A    between atoms: _305  and  _306
REMARK  137  A    between atoms: _305  and  _308
REMARK  138  A    between atoms: _308  and  _309
REMARK  139  A    between atoms: _309  and  _310
REMARK  140  A    between atoms: _313  and  _315
REMARK  141  A    between atoms: _315  and  _316
REMARK  142  A    between atoms: _315  and  _318
REMARK  143  A    between atoms: _318  and  _319
REMARK  144  A    between atoms: _324  and  _325
REMARK  145  A    between atoms: _327  and  _329
REMARK  146  A    between atoms: _329  and  _330
REMARK  147  A    between atoms: _329  and  _332
REMARK  148  A    between atoms: _336  and  _337
REMARK  149  A    between atoms: _342  and  _344
REMARK  150  A    between atoms: _344  and  _345
REMARK  151  A    between atoms: _347  and  _349
REMARK  152  A    between atoms: _349  and  _350
REMARK  153  A    between atoms: _352  and  _354
REMARK  154  A    between atoms: _354  and  _355
REMARK  155  A    between atoms: _354  and  _357
REMARK  156  A    between atoms: _357  and  _358
REMARK  157  A    between atoms: _358  and  _359
REMARK  158  A    between atoms: _362  and  _364
REMARK  159  A    between atoms: _364  and  _365
REMARK  160  A    between atoms: _364  and  _367
REMARK  161  A    between atoms: _367  and  _368
REMARK  162  A    between atoms: _368  and  _369
REMARK  163  A    between atoms: _371  and  _373
REMARK  164  A    between atoms: _373  and  _374
REMARK  165  A    between atoms: _373  and  _376
REMARK  166  A    between atoms: _376  and  _377
REMARK  167  A    between atoms: _383  and  _385
REMARK  168  A    between atoms: _385  and  _386
REMARK  169  A    between atoms: _385  and  _388
REMARK  170  A    between atoms: _388  and  _389
REMARK  171  A    between atoms: _391  and  _393
REMARK  172  A    between atoms: _393  and  _394
REMARK  173  A    between atoms: _393  and  _396
REMARK  174  A    between atoms: _396  and  _397
REMARK  175  A    between atoms: _400  and  _402
REMARK  176  A    between atoms: _402  and  _403
REMARK  177  A    between atoms: _402  and  _405
REMARK  178  A    between atoms: _405  and  _406
REMARK  179  A    between atoms: _406  and  _407
REMARK  180  A    between atoms: _407  and  _408
REMARK  181  A    between atoms: _417  and  _419
REMARK  182  A    between atoms: _419  and  _420
REMARK  183  A    between atoms: _419  and  _422
REMARK  184  A    between atoms: _422  and  _423
REMARK  185  A    between atoms: _428  and  _429
REMARK  186  A    between atoms: _431  and  _433
REMARK  187  A    between atoms: _433  and  _434
REMARK  188  A    between atoms: _433  and  _436
REMARK  189  A    between atoms: _436  and  _437
REMARK  190  A    between atoms: _437  and  _438
REMARK  191  A    between atoms: _438  and  _439
REMARK  192  A    between atoms: _448  and  _450
REMARK  193  A    between atoms: _450  and  _451
REMARK  194  A    between atoms: _450  and  _453
REMARK  195  A    between atoms: _453  and  _454
REMARK  196  A    between atoms: _457  and  _459
REMARK  197  A    between atoms: _459  and  _460
REMARK  198  A    between atoms: _459  and  _462
REMARK  199  A    between atoms: _462  and  _463
REMARK  200  A    between atoms: _466  and  _468
REMARK  201  A    between atoms: _468  and  _469
REMARK  202  A    between atoms: _468  and  _471
REMARK  203  A    between atoms: _471  and  _472
REMARK  204  A    between atoms: _472  and  _473
REMARK  205  A    between atoms: _473  and  _474
REMARK  206  A    between atoms: _474  and  _475
REMARK  207  A    between atoms: _480  and  _481
REMARK  208  A    between atoms: _486  and  _488
REMARK  209  A    between atoms: _488  and  _489
REMARK  210  A    between atoms: _488  and  _491
REMARK  211  A    between atoms: _491  and  _492
REMARK  212  A    between atoms: _492  and  _493
REMARK  213  A    between atoms: _496  and  _498
REMARK  214  A    between atoms: _498  and  _499
REMARK  215  A    between atoms: _498  and  _501
REMARK  216  A    between atoms: _501  and  _502
REMARK  217  A    between atoms: _507  and  _509
REMARK  218  A    between atoms: _509  and  _510
REMARK  219  A    between atoms: _509  and  _512
REMARK  220  A    between atoms: _512  and  _513
REMARK  221  A    between atoms: _516  and  _518
REMARK  222  A    between atoms: _518  and  _519
REMARK  223  A    between atoms: _518  and  _521
REMARK  224  A    between atoms: _521  and  _522
REMARK  225  A    between atoms: _525  and  _527
REMARK  226  A    between atoms: _527  and  _528
REMARK  227  A    between atoms: _527  and  _530
REMARK  228  A    between atoms: _530  and  _531
REMARK  229  A    between atoms: _534  and  _536
REMARK  230  A    between atoms: _536  and  _537
REMARK  231  A    between atoms: _536  and  _539
REMARK  232  A    between atoms: _539  and  _540
REMARK  233  A    between atoms: _543  and  _545
REMARK  234  A    between atoms: _545  and  _546
REMARK  235  A    between atoms: _545  and  _548
REMARK  236  A    between atoms: _548  and  _549
REMARK  237  A    between atoms: _549  and  _550
REMARK  238  A    between atoms: _555  and  _557
REMARK  239  A    between atoms: _557  and  _558
REMARK  240  A    between atoms: _557  and  _560
REMARK  241  A    between atoms: _563  and  _565
REMARK  242  A    between atoms: _565  and  _566
REMARK  243  A    between atoms: _565  and  _568
REMARK  244  A    between atoms: _568  and  _569
REMARK  245  A    between atoms: _572  and  _574
REMARK  246  A    between atoms: _574  and  _575
REMARK  247  A    between atoms: _574  and  _577
REMARK  248  A    between atoms: _577  and  _578
REMARK  249  A    between atoms: _581  and  _583
REMARK  250  A    between atoms: _583  and  _584
REMARK  251  A    between atoms: _583  and  _586
REMARK  252  A    between atoms: _586  and  _587
REMARK  253  A    between atoms: _593  and  _595
REMARK  254  A    between atoms: _595  and  _596
REMARK  255  A    between atoms: _598  and  _600
REMARK  256  A    between atoms: _600  and  _601
REMARK  257  A    between atoms: _600  and  _603
REMARK  258  A    between atoms: _603  and  _604
REMARK  259  A    between atoms: _610  and  _612
REMARK  260  A    between atoms: _612  and  _613
REMARK  261  A    between atoms: _612  and  _615
REMARK  262  A    between atoms: _617  and  _619
REMARK  263  A    between atoms: _619  and  _620
REMARK  264  A    between atoms: _622  and  _624
REMARK  265  A    between atoms: _624  and  _625
REMARK  266  A    between atoms: _624  and  _627
REMARK  267  A    between atoms: _627  and  _628
REMARK  268  A    between atoms: _632  and  _633
REMARK  269  A    between atoms: _638  and  _640
REMARK  270  A    between atoms: _640  and  _641
REMARK  271  A    between atoms: _640  and  _643
REMARK  272  A    between atoms: _643  and  _644
REMARK  273  A    between atoms: _644  and  _645
REMARK  274  A    between atoms: _648  and  _650
REMARK  275  A    between atoms: _650  and  _651
REMARK  276  A    between atoms: _650  and  _653
REMARK  277  A    between atoms: _653  and  _654
REMARK  278  A    between atoms: _659  and  _660
REMARK  279  A    between atoms: _662  and  _664
REMARK  280  A    between atoms: _664  and  _665
REMARK  281  A    between atoms: _664  and  _667
REMARK  282  A    between atoms: _670  and  _672
REMARK  283  A    between atoms: _672  and  _673
REMARK  284  A    between atoms: _672  and  _675
REMARK  285  A    between atoms: _675  and  _676
REMARK  286  A    between atoms: _679  and  _681
REMARK  287  A    between atoms: _681  and  _682
REMARK  288  A    between atoms: _681  and  _684
REMARK  289  A    between atoms: _684  and  _685
REMARK  290  A    between atoms: _685  and  _686
REMARK  291  A    between atoms: _689  and  _691
REMARK  292  A    between atoms: _691  and  _692
REMARK  293  A    between atoms: _694  and  _696
REMARK  294  A    between atoms: _696  and  _697
REMARK  295  A    between atoms: _696  and  _699
REMARK  296  A    between atoms: _699  and  _700
REMARK  297  A    between atoms: _705  and  _706
REMARK  298  A    between atoms: _709  and  _710
REMARK  299  A    between atoms: _716  and  _717
REMARK  300  A    between atoms: _722  and  _724
REMARK  301  A    between atoms: _724  and  _725
REMARK  302  A    between atoms: _724  and  _727
REMARK  303  A    between atoms: _727  and  _728
REMARK  304  A    between atoms: _734  and  _736
REMARK  305  A    between atoms: _736  and  _737
REMARK  306  A    between atoms: _736  and  _739
REMARK  307  A    between atoms: _739  and  _740
REMARK  308  A    between atoms: _746  and  _748
REMARK  309  A    between atoms: _748  and  _749
REMARK  310  A    between atoms: _752  and  _754
REMARK  311  A    between atoms: _754  and  _755
REMARK  312  A    between atoms: _754  and  _757
REMARK  313  A    between atoms: _757  and  _758
REMARK                            x       y       z     vdW  Elec       q    Type
REMARK                         _______ _______ _______ _____ _____    ______ ____
ROOT
ATOM      1  O   HOH     1      23.358  13.556  11.493  0.00  0.00    +0.000 OA
ENDROOT
TORSDOF 0
REMARK  Name = ../refined-set-2016/3ag9/3ag9_pocket.pdb
REMARK  313 active torsions:
REMARK  status: ('A' for Active; 'I' for Inactive)
REMARK    1  A    between atoms: _1  and  _3
REMARK    2  A    between atoms: _3  and  _4
REMARK    3  A    between atoms: _3  and  _6
REMARK    4  A    between atoms: _6  and  _7
REMARK    5  A    between atoms: _10  and  _12
REMARK    6  A    between atoms: _12  and  _13
REMARK    7  A    between atoms: _12  and  _15
REMARK    8  A    between atoms: _15  and  _16
REMARK    9  A    between atoms: _19  and  _21
REMARK   10  A    between atoms: _21  and  _22
REMARK   11  A    between atoms: _24  and  _26
REMARK   12  A    between atoms: _26  and  _27
REMARK   13  A    between atoms: _26  and  _29
REMARK   14  A    between atoms: _29  and  _30
REMARK   15  A    between atoms: _33  and  _35
REMARK   16  A    between atoms: _35  and  _36
REMARK   17  A    between atoms: _38  and  _40
REMARK   18  A    between atoms: _40  and  _41
REMARK   19  A    between atoms: _40  and  _43
REMARK   20  A    between atoms: _43  and  _44
REMARK   21  A    between atoms: _46  and  _48
REMARK   22  A    between atoms: _48  and  _49
REMARK   23  A    between atoms: _48  and  _51
REMARK   24  A    between atoms: _51  and  _52
REMARK   25  A    between atoms: _58  and  _60
REMARK   26  A    between atoms: _60  and  _61
REMARK   27  A    between atoms: _63  and  _65
REMARK   28  A    between atoms: _65  and  _66
REMARK   29  A    between atoms: _65  and  _68
REMARK   30  A    between atoms: _68  and  _69
REMARK   31  A    between atoms: _69  and  _70
REMARK   32  A    between atoms: _70  and  _71
REMARK   33  A    between atoms: _80  and  _82
REMARK   34  A    between atoms: _82  and  _83
REMARK   35  A    between atoms: _82  and  _85
REMARK   36  A    between atoms: _88  and  _90
REMARK   37  A    between atoms: _90  and  _91
REMARK   38  A    between atoms: _90  and  _93
REMARK   39  A    between atoms: _93  and  _94
REMARK   40  A    between atoms: _94  and  _95
REMARK   41  A    between atoms: _97  and  _99
REMARK   42  A    between atoms: _99  and  _100
REMARK   43  A    between atoms: _99  and  _102
REMARK   44  A    between atoms: _102  and  _103
REMARK   45  A    between atoms: _106  and  _108
REMARK   46  A    between atoms: _108  and  _109
REMARK   47  A    between atoms: _108  and  _111
REMARK   48  A    between atoms: _111  and  _112
REMARK   49  A    between atoms: _117  and  _118
REMARK   50  A    between atoms: _120  and  _122
REMARK   51  A    between atoms: _122  and  _123
REMARK   52  A    between atoms: _126  and  _128
REMARK   53  A    between atoms: _128  and  _129
REMARK   54  A    between atoms: _128  and  _131
REMARK   55  A    between atoms: _131  and  _132
REMARK   56  A    between atoms: _132  and  _133
REMARK   57  A    between atoms: _135  and  _137
REMARK   58  A    between atoms: _137  and  _138
REMARK   59  A    between atoms: _137  and  _140
REMARK   60  A    between atoms: _140  and  _141
REMARK   61  A    between atoms: _141  and  _142
REMARK   62  A    between atoms: _142  and  _143
REMARK   63  A    between atoms: _143  and  _144
REMARK   64  A    between atoms: _148  and  _150
REMARK   65  A    between atoms: _150  and  _151
REMARK   66  A    between atoms: _150  and  _153
REMARK   67  A    between atoms: _153  and  _154
REMARK   68  A    between atoms: _157  and  _159
REMARK   69  A    between atoms: _159  and  _160
REMARK   70  A    between atoms: _159  and  _162
REMARK   71  A    between atoms: _162  and  _163
REMARK   72  A    between atoms: _166  and  _168
REMARK   73  A    between atoms: _168  and  _169
REMARK   74  A    between atoms: _168  and  _171
REMARK   75  A    between atoms: _171  and  _172
REMARK   76  A    between atoms: _175  and  _177
REMARK   77  A    between atoms: _177  and  _178
REMARK   78  A    between atoms: _177  and  _180
REMARK   79  A    between atoms: _180  and  _181
REMARK   80  A    between atoms: _181  and  _182
REMARK   81  A    between atoms: _182  and  _183
REMARK   82  A    between atoms: _183  and  _184
REMARK   83  A    between atoms: _188  and  _190
REMARK   84  A    between atoms: _190  and  _191
REMARK   85  A    between atoms: _190  and  _193
REMARK   86  A    between atoms: _196  and  _198
REMARK   87  A    between atoms: _198  and  _199
REMARK   88  A    between atoms: _198  and  _201
REMARK   89  A    between atoms: _201  and  _202
REMARK   90  A    between atoms: _205  and  _207
REMARK   91  A    between atoms: _207  and  _208
REMARK   92  A    between atoms: _207  and  _210
REMARK   93  A    between atoms: _210  and  _211
REMARK   94  A    between atoms: _211  and  _212
REMARK   95  A    between atoms: _217  and  _219
REMARK   96  A    between atoms: _219  and  _220
REMARK   97  A    between atoms: _219  and  _222
REMARK   98  A    between atoms: _222  and  _223
REMARK   99  A    between atoms: _228  and  _230
REMARK  100  A    between atoms: _230  and  _231
REMARK  101  A    between atoms: _230  and  _233
REMARK  102  A    between atoms: _233  and  _234
REMARK  103  A    between atoms: _237  and  _239
REMARK  104  A    between atoms: _239  and  _240
REMARK  105  A    between atoms: _239  and  _242
REMARK  106  A    between atoms: _242  and  _243
REMARK  107  A    between atoms: _243  and  _244
REMARK  108  A    between atoms: _247  and  _249
REMARK  109  A    between atoms: _249  and  _250
REMARK  110  A    between atoms: _249  and  _252
REMARK  111  A    between atoms: _255  and  _257
REMARK  112  A    between atoms: _257  and  _258
REMARK  113  A    between atoms: _257  and  _260
REMARK  114  A    between atoms: _260  and  _261
REMARK  115  A    between atoms: _261  and  _262
REMARK  116  A    between atoms: _262  and  _263
REMARK  117  A    between atoms: _263  and  _264
REMARK  118  A    between atoms: _268  and  _270
REMARK  119  A    between atoms: _270  and  _271
REMARK  120  A    between atoms: _270  and  _273
REMARK  121  A    between atoms: _273  and  _274
REMARK  122  A    between atoms: _277  and  _279
REMARK  123  A    between atoms: _279  and  _280
REMARK  124  A    between atoms: _279  and  _282
REMARK  125  A    between atoms: _282  and  _283
REMARK  126  A    between atoms: _283  and  _284
REMARK  127  A    between atoms: _286  and  _288
REMARK  128  A    between atoms: _288  and  _289
REMARK  129  A    between atoms: _288  and  _291
REMARK  130  A    between atoms: _294  and  _296
REMARK  131  A    between atoms: _296  and  _297
REMARK  132  A    between atoms: _296  and  _299
REMARK  133  A    between atoms: _299  and  _300
REMARK  134  A    between atoms: _300  and  _301
REMARK  135  A    between atoms: _303  and  _305
REMARK  136  A    between atoms: _305  and  _306
REMARK  137  A    between atoms: _305  and  _308
REMARK  138  A    between atoms: _308  and  _309
REMARK  139  A    between atoms: _309  and  _310
REMARK  140  A    between atoms: _313  and  _315
REMARK  141  A    between atoms: _315  and  _316
REMARK  142  A    between atoms: _315  and  _318
REMARK  143  A    between atoms: _318  and  _319
REMARK  144  A    between atoms: _324  and  _325
REMARK  145  A    between atoms: _327  and  _329
REMARK  146  A    between atoms: _329  and  _330
REMARK  147  A    between atoms: _329  and  _332
REMARK  148  A    between atoms: _336  and  _337
REMARK  149  A    between atoms: _342  and  _344
REMARK  150  A    between atoms: _344  and  _345
REMARK  151  A    between atoms: _347  and  _349
REMARK  152  A    between atoms: _349  and  _350
REMARK  153  A    between atoms: _352  and  _354
REMARK  154  A    between atoms: _354  and  _355
REMARK  155  A    between atoms: _354  and  _357
REMARK  156  A    between atoms: _357  and  _358
REMARK  157  A    between atoms: _358  and  _359
REMARK  158  A    between atoms: _362  and  _364
REMARK  159  A    between atoms: _364  and  _365
REMARK  160  A    between atoms: _364  and  _367
REMARK  161  A    between atoms: _367  and  _368
REMARK  162  A    between atoms: _368  and  _369
REMARK  163  A    between atoms: _371  and  _373
REMARK  164  A    between atoms: _373  and  _374
REMARK  165  A    between atoms: _373  and  _376
REMARK  166  A    between atoms: _376  and  _377
REMARK  167  A    between atoms: _383  and  _385
REMARK  168  A    between atoms: _385  and  _386
REMARK  169  A    between atoms: _385  and  _388
REMARK  170  A    between atoms: _388  and  _389
REMARK  171  A    between atoms: _391  and  _393
REMARK  172  A    between atoms: _393  and  _394
REMARK  173  A    between atoms: _393  and  _396
REMARK  174  A    between atoms: _396  and  _397
REMARK  175  A    between atoms: _400  and  _402
REMARK  176  A    between atoms: _402  and  _403
REMARK  177  A    between atoms: _402  and  _405
REMARK  178  A    between atoms: _405  and  _406
REMARK  179  A    between atoms: _406  and  _407
REMARK  180  A    between atoms: _407  and  _408
REMARK  181  A    between atoms: _417  and  _419
REMARK  182  A    between atoms: _419  and  _420
REMARK  183  A    between atoms: _419  and  _422
REMARK  184  A    between atoms: _422  and  _423
REMARK  185  A    between atoms: _428  and  _429
REMARK  186  A    between atoms: _431  and  _433
REMARK  187  A    between atoms: _433  and  _434
REMARK  188  A    between atoms: _433  and  _436
REMARK  189  A    between atoms: _436  and  _437
REMARK  190  A    between atoms: _437  and  _438
REMARK  191  A    between atoms: _438  and  _439
REMARK  192  A    between atoms: _448  and  _450
REMARK  193  A    between atoms: _450  and  _451
REMARK  194  A    between atoms: _450  and  _453
REMARK  195  A    between atoms: _453  and  _454
REMARK  196  A    between atoms: _457  and  _459
REMARK  197  A    between atoms: _459  and  _460
REMARK  198  A    between atoms: _459  and  _462
REMARK  199  A    between atoms: _462  and  _463
REMARK  200  A    between atoms: _466  and  _468
REMARK  201  A    between atoms: _468  and  _469
REMARK  202  A    between atoms: _468  and  _471
REMARK  203  A    between atoms: _471  and  _472
REMARK  204  A    between atoms: _472  and  _473
REMARK  205  A    between atoms: _473  and  _474
REMARK  206  A    between atoms: _474  and  _475
REMARK  207  A    between atoms: _480  and  _481
REMARK  208  A    between atoms: _486  and  _488
REMARK  209  A    between atoms: _488  and  _489
REMARK  210  A    between atoms: _488  and  _491
REMARK  211  A    between atoms: _491  and  _492
REMARK  212  A    between atoms: _492  and  _493
REMARK  213  A    between atoms: _496  and  _498
REMARK  214  A    between atoms: _498  and  _499
REMARK  215  A    between atoms: _498  and  _501
REMARK  216  A    between atoms: _501  and  _502
REMARK  217  A    between atoms: _507  and  _509
REMARK  218  A    between atoms: _509  and  _510
REMARK  219  A    between atoms: _509  and  _512
REMARK  220  A    between atoms: _512  and  _513
REMARK  221  A    between atoms: _516  and  _518
REMARK  222  A    between atoms: _518  and  _519
REMARK  223  A    between atoms: _518  and  _521
REMARK  224  A    between atoms: _521  and  _522
REMARK  225  A    between atoms: _525  and  _527
REMARK  226  A    between atoms: _527  and  _528
REMARK  227  A    between atoms: _527  and  _530
REMARK  228  A    between atoms: _530  and  _531
REMARK  229  A    between atoms: _534  and  _536
REMARK  230  A    between atoms: _536  and  _537
REMARK  231  A    between atoms: _536  and  _539
REMARK  232  A    between atoms: _539  and  _540
REMARK  233  A    between atoms: _543  and  _545
REMARK  234  A    between atoms: _545  and  _546
REMARK  235  A    between atoms: _545  and  _548
REMARK  236  A    between atoms: _548  and  _549
REMARK  237  A    between atoms: _549  and  _550
REMARK  238  A    between atoms: _555  and  _557
REMARK  239  A    between atoms: _557  and  _558
REMARK  240  A    between atoms: _557  and  _560
REMARK  241  A    between atoms: _563  and  _565
REMARK  242  A    between atoms: _565  and  _566
REMARK  243  A    between atoms: _565  and  _568
REMARK  244  A    between atoms: _568  and  _569
REMARK  245  A    between atoms: _572  and  _574
REMARK  246  A    between atoms: _574  and  _575
REMARK  247  A    between atoms: _574  and  _577
REMARK  248  A    between atoms: _577  and  _578
REMARK  249  A    between atoms: _581  and  _583
REMARK  250  A    between atoms: _583  and  _584
REMARK  251  A    between atoms: _583  and  _586
REMARK  252  A    between atoms: _586  and  _587
REMARK  253  A    between atoms: _593  and  _595
REMARK  254  A    between atoms: _595  and  _596
REMARK  255  A    between atoms: _598  and  _600
REMARK  256  A    between atoms: _600  and  _601
REMARK  257  A    between atoms: _600  and  _603
REMARK  258  A    between atoms: _603  and  _604
REMARK  259  A    between atoms: _610  and  _612
REMARK  260  A    between atoms: _612  and  _613
REMARK  261  A    between atoms: _612  and  _615
REMARK  262  A    between atoms: _617  and  _619
REMARK  263  A    between atoms: _619  and  _620
REMARK  264  A    between atoms: _622  and  _624
REMARK  265  A    between atoms: _624  and  _625
REMARK  266  A    between atoms: _624  and  _627
REMARK  267  A    between atoms: _627  and  _628
REMARK  268  A    between atoms: _632  and  _633
REMARK  269  A    between atoms: _638  and  _640
REMARK  270  A    between atoms: _640  and  _641
REMARK  271  A    between atoms: _640  and  _643
REMARK  272  A    between atoms: _643  and  _644
REMARK  273  A    between atoms: _644  and  _645
REMARK  274  A    between atoms: _648  and  _650
REMARK  275  A    between atoms: _650  and  _651
REMARK  276  A    between atoms: _650  and  _653
REMARK  277  A    between atoms: _653  and  _654
REMARK  278  A    between atoms: _659  and  _660
REMARK  279  A    between atoms: _662  and  _664
REMARK  280  A    between atoms: _664  and  _665
REMARK  281  A    between atoms: _664  and  _667
REMARK  282  A    between atoms: _670  and  _672
REMARK  283  A    between atoms: _672  and  _673
REMARK  284  A    between atoms: _672  and  _675
REMARK  285  A    between atoms: _675  and  _676
REMARK  286  A    between atoms: _679  and  _681
REMARK  287  A    between atoms: _681  and  _682
REMARK  288  A    between atoms: _681  and  _684
REMARK  289  A    between atoms: _684  and  _685
REMARK  290  A    between atoms: _685  and  _686
REMARK  291  A    between atoms: _689  and  _691
REMARK  292  A    between atoms: _691  and  _692
REMARK  293  A    between atoms: _694  and  _696
REMARK  294  A    between atoms: _696  and  _697
REMARK  295  A    between atoms: _696  and  _699
REMARK  296  A    between atoms: _699  and  _700
REMARK  297  A    between atoms: _705  and  _706
REMARK  298  A    between atoms: _709  and  _710
REMARK  299  A    between atoms: _716  and  _717
REMARK  300  A    between atoms: _722  and  _724
REMARK  301  A    between atoms: _724  and  _725
REMARK  302  A    between atoms: _724  and  _727
REMARK  303  A    between atoms: _727  and  _728
REMARK  304  A    between atoms: _734  and  _736
REMARK  305  A    between atoms: _736  and  _737
REMARK  306  A    between atoms: _736  and  _739
REMARK  307  A    between atoms: _739  and  _740
REMARK  308  A    between atoms: _746  and  _748
REMARK  309  A    between atoms: _748  and  _749
REMARK  310  A    between atoms: _752  and  _754
REMARK  311  A    between atoms: _754  and  _755
REMARK  312  A    between atoms: _754  and  _757
REMARK  313  A    between atoms: _757  and  _758
REMARK                            x       y       z     vdW  Elec       q    Type
REMARK                         _______ _______ _______ _____ _____    ______ ____
ROOT
ATOM      1  O   HOH     1      11.591   3.051  24.910  0.00  0.00    +0.000 OA
ENDROOT
TORSDOF 0
REMARK  Name = ../refined-set-2016/3ag9/3ag9_pocket.pdb
REMARK  313 active torsions:
REMARK  status: ('A' for Active; 'I' for Inactive)
REMARK    1  A    between atoms: _1  and  _3
REMARK    2  A    between atoms: _3  and  _4
REMARK    3  A    between atoms: _3  and  _6
REMARK    4  A    between atoms: _6  and  _7
REMARK    5  A    between atoms: _10  and  _12
REMARK    6  A    between atoms: _12  and  _13
REMARK    7  A    between atoms: _12  and  _15
REMARK    8  A    between atoms: _15  and  _16
REMARK    9  A    between atoms: _19  and  _21
REMARK   10  A    between atoms: _21  and  _22
REMARK   11  A    between atoms: _24  and  _26
REMARK   12  A    between atoms: _26  and  _27
REMARK   13  A    between atoms: _26  and  _29
REMARK   14  A    between atoms: _29  and  _30
REMARK   15  A    between atoms: _33  and  _35
REMARK   16  A    between atoms: _35  and  _36
REMARK   17  A    between atoms: _38  and  _40
REMARK   18  A    between atoms: _40  and  _41
REMARK   19  A    between atoms: _40  and  _43
REMARK   20  A    between atoms: _43  and  _44
REMARK   21  A    between atoms: _46  and  _48
REMARK   22  A    between atoms: _48  and  _49
REMARK   23  A    between atoms: _48  and  _51
REMARK   24  A    between atoms: _51  and  _52
REMARK   25  A    between atoms: _58  and  _60
REMARK   26  A    between atoms: _60  and  _61
REMARK   27  A    between atoms: _63  and  _65
REMARK   28  A    between atoms: _65  and  _66
REMARK   29  A    between atoms: _65  and  _68
REMARK   30  A    between atoms: _68  and  _69
REMARK   31  A    between atoms: _69  and  _70
REMARK   32  A    between atoms: _70  and  _71
REMARK   33  A    between atoms: _80  and  _82
REMARK   34  A    between atoms: _82  and  _83
REMARK   35  A    between atoms: _82  and  _85
REMARK   36  A    between atoms: _88  and  _90
REMARK   37  A    between atoms: _90  and  _91
REMARK   38  A    between atoms: _90  and  _93
REMARK   39  A    between atoms: _93  and  _94
REMARK   40  A    between atoms: _94  and  _95
REMARK   41  A    between atoms: _97  and  _99
REMARK   42  A    between atoms: _99  and  _100
REMARK   43  A    between atoms: _99  and  _102
REMARK   44  A    between atoms: _102  and  _103
REMARK   45  A    between atoms: _106  and  _108
REMARK   46  A    between atoms: _108  and  _109
REMARK   47  A    between atoms: _108  and  _111
REMARK   48  A    between atoms: _111  and  _112
REMARK   49  A    between atoms: _117  and  _118
REMARK   50  A    between atoms: _120  and  _122
REMARK   51  A    between atoms: _122  and  _123
REMARK   52  A    between atoms: _126  and  _128
REMARK   53  A    between atoms: _128  and  _129
REMARK   54  A    between atoms: _128  and  _131
REMARK   55  A    between atoms: _131  and  _132
REMARK   56  A    between atoms: _132  and  _133
REMARK   57  A    between atoms: _135  and  _137
REMARK   58  A    between atoms: _137  and  _138
REMARK   59  A    between atoms: _137  and  _140
REMARK   60  A    between atoms: _140  and  _141
REMARK   61  A    between atoms: _141  and  _142
REMARK   62  A    between atoms: _142  and  _143
REMARK   63  A    between atoms: _143  and  _144
REMARK   64  A    between atoms: _148  and  _150
REMARK   65  A    between atoms: _150  and  _151
REMARK   66  A    between atoms: _150  and  _153
REMARK   67  A    between atoms: _153  and  _154
REMARK   68  A    between atoms: _157  and  _159
REMARK   69  A    between atoms: _159  and  _160
REMARK   70  A    between atoms: _159  and  _162
REMARK   71  A    between atoms: _162  and  _163
REMARK   72  A    between atoms: _166  and  _168
REMARK   73  A    between atoms: _168  and  _169
REMARK   74  A    between atoms: _168  and  _171
REMARK   75  A    between atoms: _171  and  _172
REMARK   76  A    between atoms: _175  and  _177
REMARK   77  A    between atoms: _177  and  _178
REMARK   78  A    between atoms: _177  and  _180
REMARK   79  A    between atoms: _180  and  _181
REMARK   80  A    between atoms: _181  and  _182
REMARK   81  A    between atoms: _182  and  _183
REMARK   82  A    between atoms: _183  and  _184
REMARK   83  A    between atoms: _188  and  _190
REMARK   84  A    between atoms: _190  and  _191
REMARK   85  A    between atoms: _190  and  _193
REMARK   86  A    between atoms: _196  and  _198
REMARK   87  A    between atoms: _198  and  _199
REMARK   88  A    between atoms: _198  and  _201
REMARK   89  A    between atoms: _201  and  _202
REMARK   90  A    between atoms: _205  and  _207
REMARK   91  A    between atoms: _207  and  _208
REMARK   92  A    between atoms: _207  and  _210
REMARK   93  A    between atoms: _210  and  _211
REMARK   94  A    between atoms: _211  and  _212
REMARK   95  A    between atoms: _217  and  _219
REMARK   96  A    between atoms: _219  and  _220
REMARK   97  A    between atoms: _219  and  _222
REMARK   98  A    between atoms: _222  and  _223
REMARK   99  A    between atoms: _228  and  _230
REMARK  100  A    between atoms: _230  and  _231
REMARK  101  A    between atoms: _230  and  _233
REMARK  102  A    between atoms: _233  and  _234
REMARK  103  A    between atoms: _237  and  _239
REMARK  104  A    between atoms: _239  and  _240
REMARK  105  A    between atoms: _239  and  _242
REMARK  106  A    between atoms: _242  and  _243
REMARK  107  A    between atoms: _243  and  _244
REMARK  108  A    between atoms: _247  and  _249
REMARK  109  A    between atoms: _249  and  _250
REMARK  110  A    between atoms: _249  and  _252
REMARK  111  A    between atoms: _255  and  _257
REMARK  112  A    between atoms: _257  and  _258
REMARK  113  A    between atoms: _257  and  _260
REMARK  114  A    between atoms: _260  and  _261
REMARK  115  A    between atoms: _261  and  _262
REMARK  116  A    between atoms: _262  and  _263
REMARK  117  A    between atoms: _263  and  _264
REMARK  118  A    between atoms: _268  and  _270
REMARK  119  A    between atoms: _270  and  _271
REMARK  120  A    between atoms: _270  and  _273
REMARK  121  A    between atoms: _273  and  _274
REMARK  122  A    between atoms: _277  and  _279
REMARK  123  A    between atoms: _279  and  _280
REMARK  124  A    between atoms: _279  and  _282
REMARK  125  A    between atoms: _282  and  _283
REMARK  126  A    between atoms: _283  and  _284
REMARK  127  A    between atoms: _286  and  _288
REMARK  128  A    between atoms: _288  and  _289
REMARK  129  A    between atoms: _288  and  _291
REMARK  130  A    between atoms: _294  and  _296
REMARK  131  A    between atoms: _296  and  _297
REMARK  132  A    between atoms: _296  and  _299
REMARK  133  A    between atoms: _299  and  _300
REMARK  134  A    between atoms: _300  and  _301
REMARK  135  A    between atoms: _303  and  _305
REMARK  136  A    between atoms: _305  and  _306
REMARK  137  A    between atoms: _305  and  _308
REMARK  138  A    between atoms: _308  and  _309
REMARK  139  A    between atoms: _309  and  _310
REMARK  140  A    between atoms: _313  and  _315
REMARK  141  A    between atoms: _315  and  _316
REMARK  142  A    between atoms: _315  and  _318
REMARK  143  A    between atoms: _318  and  _319
REMARK  144  A    between atoms: _324  and  _325
REMARK  145  A    between atoms: _327  and  _329
REMARK  146  A    between atoms: _329  and  _330
REMARK  147  A    between atoms: _329  and  _332
REMARK  148  A    between atoms: _336  and  _337
REMARK  149  A    between atoms: _342  and  _344
REMARK  150  A    between atoms: _344  and  _345
REMARK  151  A    between atoms: _347  and  _349
REMARK  152  A    between atoms: _349  and  _350
REMARK  153  A    between atoms: _352  and  _354
REMARK  154  A    between atoms: _354  and  _355
REMARK  155  A    between atoms: _354  and  _357
REMARK  156  A    between atoms: _357  and  _358
REMARK  157  A    between atoms: _358  and  _359
REMARK  158  A    between atoms: _362  and  _364
REMARK  159  A    between atoms: _364  and  _365
REMARK  160  A    between atoms: _364  and  _367
REMARK  161  A    between atoms: _367  and  _368
REMARK  162  A    between atoms: _368  and  _369
REMARK  163  A    between atoms: _371  and  _373
REMARK  164  A    between atoms: _373  and  _374
REMARK  165  A    between atoms: _373  and  _376
REMARK  166  A    between atoms: _376  and  _377
REMARK  167  A    between atoms: _383  and  _385
REMARK  168  A    between atoms: _385  and  _386
REMARK  169  A    between atoms: _385  and  _388
REMARK  170  A    between atoms: _388  and  _389
REMARK  171  A    between atoms: _391  and  _393
REMARK  172  A    between atoms: _393  and  _394
REMARK  173  A    between atoms: _393  and  _396
REMARK  174  A    between atoms: _396  and  _397
REMARK  175  A    between atoms: _400  and  _402
REMARK  176  A    between atoms: _402  and  _403
REMARK  177  A    between atoms: _402  and  _405
REMARK  178  A    between atoms: _405  and  _406
REMARK  179  A    between atoms: _406  and  _407
REMARK  180  A    between atoms: _407  and  _408
REMARK  181  A    between atoms: _417  and  _419
REMARK  182  A    between atoms: _419  and  _420
REMARK  183  A    between atoms: _419  and  _422
REMARK  184  A    between atoms: _422  and  _423
REMARK  185  A    between atoms: _428  and  _429
REMARK  186  A    between atoms: _431  and  _433
REMARK  187  A    between atoms: _433  and  _434
REMARK  188  A    between atoms: _433  and  _436
REMARK  189  A    between atoms: _436  and  _437
REMARK  190  A    between atoms: _437  and  _438
REMARK  191  A    between atoms: _438  and  _439
REMARK  192  A    between atoms: _448  and  _450
REMARK  193  A    between atoms: _450  and  _451
REMARK  194  A    between atoms: _450  and  _453
REMARK  195  A    between atoms: _453  and  _454
REMARK  196  A    between atoms: _457  and  _459
REMARK  197  A    between atoms: _459  and  _460
REMARK  198  A    between atoms: _459  and  _462
REMARK  199  A    between atoms: _462  and  _463
REMARK  200  A    between atoms: _466  and  _468
REMARK  201  A    between atoms: _468  and  _469
REMARK  202  A    between atoms: _468  and  _471
REMARK  203  A    between atoms: _471  and  _472
REMARK  204  A    between atoms: _472  and  _473
REMARK  205  A    between atoms: _473  and  _474
REMARK  206  A    between atoms: _474  and  _475
REMARK  207  A    between atoms: _480  and  _481
REMARK  208  A    between atoms: _486  and  _488
REMARK  209  A    between atoms: _488  and  _489
REMARK  210  A    between atoms: _488  and  _491
REMARK  211  A    between atoms: _491  and  _492
REMARK  212  A    between atoms: _492  and  _493
REMARK  213  A    between atoms: _496  and  _498
REMARK  214  A    between atoms: _498  and  _499
REMARK  215  A    between atoms: _498  and  _501
REMARK  216  A    between atoms: _501  and  _502
REMARK  217  A    between atoms: _507  and  _509
REMARK  218  A    between atoms: _509  and  _510
REMARK  219  A    between atoms: _509  and  _512
REMARK  220  A    between atoms: _512  and  _513
REMARK  221  A    between atoms: _516  and  _518
REMARK  222  A    between atoms: _518  and  _519
REMARK  223  A    between atoms: _518  and  _521
REMARK  224  A    between atoms: _521  and  _522
REMARK  225  A    between atoms: _525  and  _527
REMARK  226  A    between atoms: _527  and  _528
REMARK  227  A    between atoms: _527  and  _530
REMARK  228  A    between atoms: _530  and  _531
REMARK  229  A    between atoms: _534  and  _536
REMARK  230  A    between atoms: _536  and  _537
REMARK  231  A    between atoms: _536  and  _539
REMARK  232  A    between atoms: _539  and  _540
REMARK  233  A    between atoms: _543  and  _545
REMARK  234  A    between atoms: _545  and  _546
REMARK  235  A    between atoms: _545  and  _548
REMARK  236  A    between atoms: _548  and  _549
REMARK  237  A    between atoms: _549  and  _550
REMARK  238  A    between atoms: _555  and  _557
REMARK  239  A    between atoms: _557  and  _558
REMARK  240  A    between atoms: _557  and  _560
REMARK  241  A    between atoms: _563  and  _565
REMARK  242  A    between atoms: _565  and  _566
REMARK  243  A    between atoms: _565  and  _568
REMARK  244  A    between atoms: _568  and  _569
REMARK  245  A    between atoms: _572  and  _574
REMARK  246  A    between atoms: _574  and  _575
REMARK  247  A    between atoms: _574  and  _577
REMARK  248  A    between atoms: _577  and  _578
REMARK  249  A    between atoms: _581  and  _583
REMARK  250  A    between atoms: _583  and  _584
REMARK  251  A    between atoms: _583  and  _586
REMARK  252  A    between atoms: _586  and  _587
REMARK  253  A    between atoms: _593  and  _595
REMARK  254  A    between atoms: _595  and  _596
REMARK  255  A    between atoms: _598  and  _600
REMARK  256  A    between atoms: _600  and  _601
REMARK  257  A    between atoms: _600  and  _603
REMARK  258  A    between atoms: _603  and  _604
REMARK  259  A    between atoms: _610  and  _612
REMARK  260  A    between atoms: _612  and  _613
REMARK  261  A    between atoms: _612  and  _615
REMARK  262  A    between atoms: _617  and  _619
REMARK  263  A    between atoms: _619  and  _620
REMARK  264  A    between atoms: _622  and  _624
REMARK  265  A    between atoms: _624  and  _625
REMARK  266  A    between atoms: _624  and  _627
REMARK  267  A    between atoms: _627  and  _628
REMARK  268  A    between atoms: _632  and  _633
REMARK  269  A    between atoms: _638  and  _640
REMARK  270  A    between atoms: _640  and  _641
REMARK  271  A    between atoms: _640  and  _643
REMARK  272  A    between atoms: _643  and  _644
REMARK  273  A    between atoms: _644  and  _645
REMARK  274  A    between atoms: _648  and  _650
REMARK  275  A    between atoms: _650  and  _651
REMARK  276  A    between atoms: _650  and  _653
REMARK  277  A    between atoms: _653  and  _654
REMARK  278  A    between atoms: _659  and  _660
REMARK  279  A    between atoms: _662  and  _664
REMARK  280  A    between atoms: _664  and  _665
REMARK  281  A    between atoms: _664  and  _667
REMARK  282  A    between atoms: _670  and  _672
REMARK  283  A    between atoms: _672  and  _673
REMARK  284  A    between atoms: _672  and  _675
REMARK  285  A    between atoms: _675  and  _676
REMARK  286  A    between atoms: _679  and  _681
REMARK  287  A    between atoms: _681  and  _682
REMARK  288  A    between atoms: _681  and  _684
REMARK  289  A    between atoms: _684  and  _685
REMARK  290  A    between atoms: _685  and  _686
REMARK  291  A    between atoms: _689  and  _691
REMARK  292  A    between atoms: _691  and  _692
REMARK  293  A    between atoms: _694  and  _696
REMARK  294  A    between atoms: _696  and  _697
REMARK  295  A    between atoms: _696  and  _699
REMARK  296  A    between atoms: _699  and  _700
REMARK  297  A    between atoms: _705  and  _706
REMARK  298  A    between atoms: _709  and  _710
REMARK  299  A    between atoms: _716  and  _717
REMARK  300  A    between atoms: _722  and  _724
REMARK  301  A    between atoms: _724  and  _725
REMARK  302  A    between atoms: _724  and  _727
REMARK  303  A    between atoms: _727  and  _728
REMARK  304  A    between atoms: _734  and  _736
REMARK  305  A    between atoms: _736  and  _737
REMARK  306  A    between atoms: _736  and  _739
REMARK  307  A    between atoms: _739  and  _740
REMARK  308  A    between atoms: _746  and  _748
REMARK  309  A    between atoms: _748  and  _749
REMARK  310  A    between atoms: _752  and  _754
REMARK  311  A    between atoms: _754  and  _755
REMARK  312  A    between atoms: _754  and  _757
REMARK  313  A    between atoms: _757  and  _758
REMARK                            x       y       z     vdW  Elec       q    Type
REMARK                         _______ _______ _______ _____ _____    ______ ____
ROOT
ATOM      1  O   HOH     1      24.006  22.631   9.027  0.00  0.00    +0.000 OA
ENDROOT
TORSDOF 0
REMARK  Name = ../refined-set-2016/3ag9/3ag9_pocket.pdb
REMARK  313 active torsions:
REMARK  status: ('A' for Active; 'I' for Inactive)
REMARK    1  A    between atoms: _1  and  _3
REMARK    2  A    between atoms: _3  and  _4
REMARK    3  A    between atoms: _3  and  _6
REMARK    4  A    between atoms: _6  and  _7
REMARK    5  A    between atoms: _10  and  _12
REMARK    6  A    between atoms: _12  and  _13
REMARK    7  A    between atoms: _12  and  _15
REMARK    8  A    between atoms: _15  and  _16
REMARK    9  A    between atoms: _19  and  _21
REMARK   10  A    between atoms: _21  and  _22
REMARK   11  A    between atoms: _24  and  _26
REMARK   12  A    between atoms: _26  and  _27
REMARK   13  A    between atoms: _26  and  _29
REMARK   14  A    between atoms: _29  and  _30
REMARK   15  A    between atoms: _33  and  _35
REMARK   16  A    between atoms: _35  and  _36
REMARK   17  A    between atoms: _38  and  _40
REMARK   18  A    between atoms: _40  and  _41
REMARK   19  A    between atoms: _40  and  _43
REMARK   20  A    between atoms: _43  and  _44
REMARK   21  A    between atoms: _46  and  _48
REMARK   22  A    between atoms: _48  and  _49
REMARK   23  A    between atoms: _48  and  _51
REMARK   24  A    between atoms: _51  and  _52
REMARK   25  A    between atoms: _58  and  _60
REMARK   26  A    between atoms: _60  and  _61
REMARK   27  A    between atoms: _63  and  _65
REMARK   28  A    between atoms: _65  and  _66
REMARK   29  A    between atoms: _65  and  _68
REMARK   30  A    between atoms: _68  and  _69
REMARK   31  A    between atoms: _69  and  _70
REMARK   32  A    between atoms: _70  and  _71
REMARK   33  A    between atoms: _80  and  _82
REMARK   34  A    between atoms: _82  and  _83
REMARK   35  A    between atoms: _82  and  _85
REMARK   36  A    between atoms: _88  and  _90
REMARK   37  A    between atoms: _90  and  _91
REMARK   38  A    between atoms: _90  and  _93
REMARK   39  A    between atoms: _93  and  _94
REMARK   40  A    between atoms: _94  and  _95
REMARK   41  A    between atoms: _97  and  _99
REMARK   42  A    between atoms: _99  and  _100
REMARK   43  A    between atoms: _99  and  _102
REMARK   44  A    between atoms: _102  and  _103
REMARK   45  A    between atoms: _106  and  _108
REMARK   46  A    between atoms: _108  and  _109
REMARK   47  A    between atoms: _108  and  _111
REMARK   48  A    between atoms: _111  and  _112
REMARK   49  A    between atoms: _117  and  _118
REMARK   50  A    between atoms: _120  and  _122
REMARK   51  A    between atoms: _122  and  _123
REMARK   52  A    between atoms: _126  and  _128
REMARK   53  A    between atoms: _128  and  _129
REMARK   54  A    between atoms: _128  and  _131
REMARK   55  A    between atoms: _131  and  _132
REMARK   56  A    between atoms: _132  and  _133
REMARK   57  A    between atoms: _135  and  _137
REMARK   58  A    between atoms: _137  and  _138
REMARK   59  A    between atoms: _137  and  _140
REMARK   60  A    between atoms: _140  and  _141
REMARK   61  A    between atoms: _141  and  _142
REMARK   62  A    between atoms: _142  and  _143
REMARK   63  A    between atoms: _143  and  _144
REMARK   64  A    between atoms: _148  and  _150
REMARK   65  A    between atoms: _150  and  _151
REMARK   66  A    between atoms: _150  and  _153
REMARK   67  A    between atoms: _153  and  _154
REMARK   68  A    between atoms: _157  and  _159
REMARK   69  A    between atoms: _159  and  _160
REMARK   70  A    between atoms: _159  and  _162
REMARK   71  A    between atoms: _162  and  _163
REMARK   72  A    between atoms: _166  and  _168
REMARK   73  A    between atoms: _168  and  _169
REMARK   74  A    between atoms: _168  and  _171
REMARK   75  A    between atoms: _171  and  _172
REMARK   76  A    between atoms: _175  and  _177
REMARK   77  A    between atoms: _177  and  _178
REMARK   78  A    between atoms: _177  and  _180
REMARK   79  A    between atoms: _180  and  _181
REMARK   80  A    between atoms: _181  and  _182
REMARK   81  A    between atoms: _182  and  _183
REMARK   82  A    between atoms: _183  and  _184
REMARK   83  A    between atoms: _188  and  _190
REMARK   84  A    between atoms: _190  and  _191
REMARK   85  A    between atoms: _190  and  _193
REMARK   86  A    between atoms: _196  and  _198
REMARK   87  A    between atoms: _198  and  _199
REMARK   88  A    between atoms: _198  and  _201
REMARK   89  A    between atoms: _201  and  _202
REMARK   90  A    between atoms: _205  and  _207
REMARK   91  A    between atoms: _207  and  _208
REMARK   92  A    between atoms: _207  and  _210
REMARK   93  A    between atoms: _210  and  _211
REMARK   94  A    between atoms: _211  and  _212
REMARK   95  A    between atoms: _217  and  _219
REMARK   96  A    between atoms: _219  and  _220
REMARK   97  A    between atoms: _219  and  _222
REMARK   98  A    between atoms: _222  and  _223
REMARK   99  A    between atoms: _228  and  _230
REMARK  100  A    between atoms: _230  and  _231
REMARK  101  A    between atoms: _230  and  _233
REMARK  102  A    between atoms: _233  and  _234
REMARK  103  A    between atoms: _237  and  _239
REMARK  104  A    between atoms: _239  and  _240
REMARK  105  A    between atoms: _239  and  _242
REMARK  106  A    between atoms: _242  and  _243
REMARK  107  A    between atoms: _243  and  _244
REMARK  108  A    between atoms: _247  and  _249
REMARK  109  A    between atoms: _249  and  _250
REMARK  110  A    between atoms: _249  and  _252
REMARK  111  A    between atoms: _255  and  _257
REMARK  112  A    between atoms: _257  and  _258
REMARK  113  A    between atoms: _257  and  _260
REMARK  114  A    between atoms: _260  and  _261
REMARK  115  A    between atoms: _261  and  _262
REMARK  116  A    between atoms: _262  and  _263
REMARK  117  A    between atoms: _263  and  _264
REMARK  118  A    between atoms: _268  and  _270
REMARK  119  A    between atoms: _270  and  _271
REMARK  120  A    between atoms: _270  and  _273
REMARK  121  A    between atoms: _273  and  _274
REMARK  122  A    between atoms: _277  and  _279
REMARK  123  A    between atoms: _279  and  _280
REMARK  124  A    between atoms: _279  and  _282
REMARK  125  A    between atoms: _282  and  _283
REMARK  126  A    between atoms: _283  and  _284
REMARK  127  A    between atoms: _286  and  _288
REMARK  128  A    between atoms: _288  and  _289
REMARK  129  A    between atoms: _288  and  _291
REMARK  130  A    between atoms: _294  and  _296
REMARK  131  A    between atoms: _296  and  _297
REMARK  132  A    between atoms: _296  and  _299
REMARK  133  A    between atoms: _299  and  _300
REMARK  134  A    between atoms: _300  and  _301
REMARK  135  A    between atoms: _303  and  _305
REMARK  136  A    between atoms: _305  and  _306
REMARK  137  A    between atoms: _305  and  _308
REMARK  138  A    between atoms: _308  and  _309
REMARK  139  A    between atoms: _309  and  _310
REMARK  140  A    between atoms: _313  and  _315
REMARK  141  A    between atoms: _315  and  _316
REMARK  142  A    between atoms: _315  and  _318
REMARK  143  A    between atoms: _318  and  _319
REMARK  144  A    between atoms: _324  and  _325
REMARK  145  A    between atoms: _327  and  _329
REMARK  146  A    between atoms: _329  and  _330
REMARK  147  A    between atoms: _329  and  _332
REMARK  148  A    between atoms: _336  and  _337
REMARK  149  A    between atoms: _342  and  _344
REMARK  150  A    between atoms: _344  and  _345
REMARK  151  A    between atoms: _347  and  _349
REMARK  152  A    between atoms: _349  and  _350
REMARK  153  A    between atoms: _352  and  _354
REMARK  154  A    between atoms: _354  and  _355
REMARK  155  A    between atoms: _354  and  _357
REMARK  156  A    between atoms: _357  and  _358
REMARK  157  A    between atoms: _358  and  _359
REMARK  158  A    between atoms: _362  and  _364
REMARK  159  A    between atoms: _364  and  _365
REMARK  160  A    between atoms: _364  and  _367
REMARK  161  A    between atoms: _367  and  _368
REMARK  162  A    between atoms: _368  and  _369
REMARK  163  A    between atoms: _371  and  _373
REMARK  164  A    between atoms: _373  and  _374
REMARK  165  A    between atoms: _373  and  _376
REMARK  166  A    between atoms: _376  and  _377
REMARK  167  A    between atoms: _383  and  _385
REMARK  168  A    between atoms: _385  and  _386
REMARK  169  A    between atoms: _385  and  _388
REMARK  170  A    between atoms: _388  and  _389
REMARK  171  A    between atoms: _391  and  _393
REMARK  172  A    between atoms: _393  and  _394
REMARK  173  A    between atoms: _393  and  _396
REMARK  174  A    between atoms: _396  and  _397
REMARK  175  A    between atoms: _400  and  _402
REMARK  176  A    between atoms: _402  and  _403
REMARK  177  A    between atoms: _402  and  _405
REMARK  178  A    between atoms: _405  and  _406
REMARK  179  A    between atoms: _406  and  _407
REMARK  180  A    between atoms: _407  and  _408
REMARK  181  A    between atoms: _417  and  _419
REMARK  182  A    between atoms: _419  and  _420
REMARK  183  A    between atoms: _419  and  _422
REMARK  184  A    between atoms: _422  and  _423
REMARK  185  A    between atoms: _428  and  _429
REMARK  186  A    between atoms: _431  and  _433
REMARK  187  A    between atoms: _433  and  _434
REMARK  188  A    between atoms: _433  and  _436
REMARK  189  A    between atoms: _436  and  _437
REMARK  190  A    between atoms: _437  and  _438
REMARK  191  A    between atoms: _438  and  _439
REMARK  192  A    between atoms: _448  and  _450
REMARK  193  A    between atoms: _450  and  _451
REMARK  194  A    between atoms: _450  and  _453
REMARK  195  A    between atoms: _453  and  _454
REMARK  196  A    between atoms: _457  and  _459
REMARK  197  A    between atoms: _459  and  _460
REMARK  198  A    between atoms: _459  and  _462
REMARK  199  A    between atoms: _462  and  _463
REMARK  200  A    between atoms: _466  and  _468
REMARK  201  A    between atoms: _468  and  _469
REMARK  202  A    between atoms: _468  and  _471
REMARK  203  A    between atoms: _471  and  _472
REMARK  204  A    between atoms: _472  and  _473
REMARK  205  A    between atoms: _473  and  _474
REMARK  206  A    between atoms: _474  and  _475
REMARK  207  A    between atoms: _480  and  _481
REMARK  208  A    between atoms: _486  and  _488
REMARK  209  A    between atoms: _488  and  _489
REMARK  210  A    between atoms: _488  and  _491
REMARK  211  A    between atoms: _491  and  _492
REMARK  212  A    between atoms: _492  and  _493
REMARK  213  A    between atoms: _496  and  _498
REMARK  214  A    between atoms: _498  and  _499
REMARK  215  A    between atoms: _498  and  _501
REMARK  216  A    between atoms: _501  and  _502
REMARK  217  A    between atoms: _507  and  _509
REMARK  218  A    between atoms: _509  and  _510
REMARK  219  A    between atoms: _509  and  _512
REMARK  220  A    between atoms: _512  and  _513
REMARK  221  A    between atoms: _516  and  _518
REMARK  222  A    between atoms: _518  and  _519
REMARK  223  A    between atoms: _518  and  _521
REMARK  224  A    between atoms: _521  and  _522
REMARK  225  A    between atoms: _525  and  _527
REMARK  226  A    between atoms: _527  and  _528
REMARK  227  A    between atoms: _527  and  _530
REMARK  228  A    between atoms: _530  and  _531
REMARK  229  A    between atoms: _534  and  _536
REMARK  230  A    between atoms: _536  and  _537
REMARK  231  A    between atoms: _536  and  _539
REMARK  232  A    between atoms: _539  and  _540
REMARK  233  A    between atoms: _543  and  _545
REMARK  234  A    between atoms: _545  and  _546
REMARK  235  A    between atoms: _545  and  _548
REMARK  236  A    between atoms: _548  and  _549
REMARK  237  A    between atoms: _549  and  _550
REMARK  238  A    between atoms: _555  and  _557
REMARK  239  A    between atoms: _557  and  _558
REMARK  240  A    between atoms: _557  and  _560
REMARK  241  A    between atoms: _563  and  _565
REMARK  242  A    between atoms: _565  and  _566
REMARK  243  A    between atoms: _565  and  _568
REMARK  244  A    between atoms: _568  and  _569
REMARK  245  A    between atoms: _572  and  _574
REMARK  246  A    between atoms: _574  and  _575
REMARK  247  A    between atoms: _574  and  _577
REMARK  248  A    between atoms: _577  and  _578
REMARK  249  A    between atoms: _581  and  _583
REMARK  250  A    between atoms: _583  and  _584
REMARK  251  A    between atoms: _583  and  _586
REMARK  252  A    between atoms: _586  and  _587
REMARK  253  A    between atoms: _593  and  _595
REMARK  254  A    between atoms: _595  and  _596
REMARK  255  A    between atoms: _598  and  _600
REMARK  256  A    between atoms: _600  and  _601
REMARK  257  A    between atoms: _600  and  _603
REMARK  258  A    between atoms: _603  and  _604
REMARK  259  A    between atoms: _610  and  _612
REMARK  260  A    between atoms: _612  and  _613
REMARK  261  A    between atoms: _612  and  _615
REMARK  262  A    between atoms: _617  and  _619
REMARK  263  A    between atoms: _619  and  _620
REMARK  264  A    between atoms: _622  and  _624
REMARK  265  A    between atoms: _624  and  _625
REMARK  266  A    between atoms: _624  and  _627
REMARK  267  A    between atoms: _627  and  _628
REMARK  268  A    between atoms: _632  and  _633
REMARK  269  A    between atoms: _638  and  _640
REMARK  270  A    between atoms: _640  and  _641
REMARK  271  A    between atoms: _640  and  _643
REMARK  272  A    between atoms: _643  and  _644
REMARK  273  A    between atoms: _644  and  _645
REMARK  274  A    between atoms: _648  and  _650
REMARK  275  A    between atoms: _650  and  _651
REMARK  276  A    between atoms: _650  and  _653
REMARK  277  A    between atoms: _653  and  _654
REMARK  278  A    between atoms: _659  and  _660
REMARK  279  A    between atoms: _662  and  _664
REMARK  280  A    between atoms: _664  and  _665
REMARK  281  A    between atoms: _664  and  _667
REMARK  282  A    between atoms: _670  and  _672
REMARK  283  A    between atoms: _672  and  _673
REMARK  284  A    between atoms: _672  and  _675
REMARK  285  A    between atoms: _675  and  _676
REMARK  286  A    between atoms: _679  and  _681
REMARK  287  A    between atoms: _681  and  _682
REMARK  288  A    between atoms: _681  and  _684
REMARK  289  A    between atoms: _684  and  _685
REMARK  290  A    between atoms: _685  and  _686
REMARK  291  A    between atoms: _689  and  _691
REMARK  292  A    between atoms: _691  and  _692
REMARK  293  A    between atoms: _694  and  _696
REMARK  294  A    between atoms: _696  and  _697
REMARK  295  A    between atoms: _696  and  _699
REMARK  296  A    between atoms: _699  and  _700
REMARK  297  A    between atoms: _705  and  _706
REMARK  298  A    between atoms: _709  and  _710
REMARK  299  A    between atoms: _716  and  _717
REMARK  300  A    between atoms: _722  and  _724
REMARK  301  A    between atoms: _724  and  _725
REMARK  302  A    between atoms: _724  and  _727
REMARK  303  A    between atoms: _727  and  _728
REMARK  304  A    between atoms: _734  and  _736
REMARK  305  A    between atoms: _736  and  _737
REMARK  306  A    between atoms: _736  and  _739
REMARK  307  A    between atoms: _739  and  _740
REMARK  308  A    between atoms: _746  and  _748
REMARK  309  A    between atoms: _748  and  _749
REMARK  310  A    between atoms: _752  and  _754
REMARK  311  A    between atoms: _754  and  _755
REMARK  312  A    between atoms: _754  and  _757
REMARK  313  A    between atoms: _757  and  _758
REMARK                            x       y       z     vdW  Elec       q    Type
REMARK                         _______ _______ _______ _____ _____    ______ ____
ROOT
ATOM      1  O   HOH     1      18.096   2.823   8.725  0.00  0.00    +0.000 OA
ENDROOT
TORSDOF 0
REMARK  Name = ../refined-set-2016/3ag9/3ag9_pocket.pdb
REMARK  313 active torsions:
REMARK  status: ('A' for Active; 'I' for Inactive)
REMARK    1  A    between atoms: _1  and  _3
REMARK    2  A    between atoms: _3  and  _4
REMARK    3  A    between atoms: _3  and  _6
REMARK    4  A    between atoms: _6  and  _7
REMARK    5  A    between atoms: _10  and  _12
REMARK    6  A    between atoms: _12  and  _13
REMARK    7  A    between atoms: _12  and  _15
REMARK    8  A    between atoms: _15  and  _16
REMARK    9  A    between atoms: _19  and  _21
REMARK   10  A    between atoms: _21  and  _22
REMARK   11  A    between atoms: _24  and  _26
REMARK   12  A    between atoms: _26  and  _27
REMARK   13  A    between atoms: _26  and  _29
REMARK   14  A    between atoms: _29  and  _30
REMARK   15  A    between atoms: _33  and  _35
REMARK   16  A    between atoms: _35  and  _36
REMARK   17  A    between atoms: _38  and  _40
REMARK   18  A    between atoms: _40  and  _41
REMARK   19  A    between atoms: _40  and  _43
REMARK   20  A    between atoms: _43  and  _44
REMARK   21  A    between atoms: _46  and  _48
REMARK   22  A    between atoms: _48  and  _49
REMARK   23  A    between atoms: _48  and  _51
REMARK   24  A    between atoms: _51  and  _52
REMARK   25  A    between atoms: _58  and  _60
REMARK   26  A    between atoms: _60  and  _61
REMARK   27  A    between atoms: _63  and  _65
REMARK   28  A    between atoms: _65  and  _66
REMARK   29  A    between atoms: _65  and  _68
REMARK   30  A    between atoms: _68  and  _69
REMARK   31  A    between atoms: _69  and  _70
REMARK   32  A    between atoms: _70  and  _71
REMARK   33  A    between atoms: _80  and  _82
REMARK   34  A    between atoms: _82  and  _83
REMARK   35  A    between atoms: _82  and  _85
REMARK   36  A    between atoms: _88  and  _90
REMARK   37  A    between atoms: _90  and  _91
REMARK   38  A    between atoms: _90  and  _93
REMARK   39  A    between atoms: _93  and  _94
REMARK   40  A    between atoms: _94  and  _95
REMARK   41  A    between atoms: _97  and  _99
REMARK   42  A    between atoms: _99  and  _100
REMARK   43  A    between atoms: _99  and  _102
REMARK   44  A    between atoms: _102  and  _103
REMARK   45  A    between atoms: _106  and  _108
REMARK   46  A    between atoms: _108  and  _109
REMARK   47  A    between atoms: _108  and  _111
REMARK   48  A    between atoms: _111  and  _112
REMARK   49  A    between atoms: _117  and  _118
REMARK   50  A    between atoms: _120  and  _122
REMARK   51  A    between atoms: _122  and  _123
REMARK   52  A    between atoms: _126  and  _128
REMARK   53  A    between atoms: _128  and  _129
REMARK   54  A    between atoms: _128  and  _131
REMARK   55  A    between atoms: _131  and  _132
REMARK   56  A    between atoms: _132  and  _133
REMARK   57  A    between atoms: _135  and  _137
REMARK   58  A    between atoms: _137  and  _138
REMARK   59  A    between atoms: _137  and  _140
REMARK   60  A    between atoms: _140  and  _141
REMARK   61  A    between atoms: _141  and  _142
REMARK   62  A    between atoms: _142  and  _143
REMARK   63  A    between atoms: _143  and  _144
REMARK   64  A    between atoms: _148  and  _150
REMARK   65  A    between atoms: _150  and  _151
REMARK   66  A    between atoms: _150  and  _153
REMARK   67  A    between atoms: _153  and  _154
REMARK   68  A    between atoms: _157  and  _159
REMARK   69  A    between atoms: _159  and  _160
REMARK   70  A    between atoms: _159  and  _162
REMARK   71  A    between atoms: _162  and  _163
REMARK   72  A    between atoms: _166  and  _168
REMARK   73  A    between atoms: _168  and  _169
REMARK   74  A    between atoms: _168  and  _171
REMARK   75  A    between atoms: _171  and  _172
REMARK   76  A    between atoms: _175  and  _177
REMARK   77  A    between atoms: _177  and  _178
REMARK   78  A    between atoms: _177  and  _180
REMARK   79  A    between atoms: _180  and  _181
REMARK   80  A    between atoms: _181  and  _182
REMARK   81  A    between atoms: _182  and  _183
REMARK   82  A    between atoms: _183  and  _184
REMARK   83  A    between atoms: _188  and  _190
REMARK   84  A    between atoms: _190  and  _191
REMARK   85  A    between atoms: _190  and  _193
REMARK   86  A    between atoms: _196  and  _198
REMARK   87  A    between atoms: _198  and  _199
REMARK   88  A    between atoms: _198  and  _201
REMARK   89  A    between atoms: _201  and  _202
REMARK   90  A    between atoms: _205  and  _207
REMARK   91  A    between atoms: _207  and  _208
REMARK   92  A    between atoms: _207  and  _210
REMARK   93  A    between atoms: _210  and  _211
REMARK   94  A    between atoms: _211  and  _212
REMARK   95  A    between atoms: _217  and  _219
REMARK   96  A    between atoms: _219  and  _220
REMARK   97  A    between atoms: _219  and  _222
REMARK   98  A    between atoms: _222  and  _223
REMARK   99  A    between atoms: _228  and  _230
REMARK  100  A    between atoms: _230  and  _231
REMARK  101  A    between atoms: _230  and  _233
REMARK  102  A    between atoms: _233  and  _234
REMARK  103  A    between atoms: _237  and  _239
REMARK  104  A    between atoms: _239  and  _240
REMARK  105  A    between atoms: _239  and  _242
REMARK  106  A    between atoms: _242  and  _243
REMARK  107  A    between atoms: _243  and  _244
REMARK  108  A    between atoms: _247  and  _249
REMARK  109  A    between atoms: _249  and  _250
REMARK  110  A    between atoms: _249  and  _252
REMARK  111  A    between atoms: _255  and  _257
REMARK  112  A    between atoms: _257  and  _258
REMARK  113  A    between atoms: _257  and  _260
REMARK  114  A    between atoms: _260  and  _261
REMARK  115  A    between atoms: _261  and  _262
REMARK  116  A    between atoms: _262  and  _263
REMARK  117  A    between atoms: _263  and  _264
REMARK  118  A    between atoms: _268  and  _270
REMARK  119  A    between atoms: _270  and  _271
REMARK  120  A    between atoms: _270  and  _273
REMARK  121  A    between atoms: _273  and  _274
REMARK  122  A    between atoms: _277  and  _279
REMARK  123  A    between atoms: _279  and  _280
REMARK  124  A    between atoms: _279  and  _282
REMARK  125  A    between atoms: _282  and  _283
REMARK  126  A    between atoms: _283  and  _284
REMARK  127  A    between atoms: _286  and  _288
REMARK  128  A    between atoms: _288  and  _289
REMARK  129  A    between atoms: _288  and  _291
REMARK  130  A    between atoms: _294  and  _296
REMARK  131  A    between atoms: _296  and  _297
REMARK  132  A    between atoms: _296  and  _299
REMARK  133  A    between atoms: _299  and  _300
REMARK  134  A    between atoms: _300  and  _301
REMARK  135  A    between atoms: _303  and  _305
REMARK  136  A    between atoms: _305  and  _306
REMARK  137  A    between atoms: _305  and  _308
REMARK  138  A    between atoms: _308  and  _309
REMARK  139  A    between atoms: _309  and  _310
REMARK  140  A    between atoms: _313  and  _315
REMARK  141  A    between atoms: _315  and  _316
REMARK  142  A    between atoms: _315  and  _318
REMARK  143  A    between atoms: _318  and  _319
REMARK  144  A    between atoms: _324  and  _325
REMARK  145  A    between atoms: _327  and  _329
REMARK  146  A    between atoms: _329  and  _330
REMARK  147  A    between atoms: _329  and  _332
REMARK  148  A    between atoms: _336  and  _337
REMARK  149  A    between atoms: _342  and  _344
REMARK  150  A    between atoms: _344  and  _345
REMARK  151  A    between atoms: _347  and  _349
REMARK  152  A    between atoms: _349  and  _350
REMARK  153  A    between atoms: _352  and  _354
REMARK  154  A    between atoms: _354  and  _355
REMARK  155  A    between atoms: _354  and  _357
REMARK  156  A    between atoms: _357  and  _358
REMARK  157  A    between atoms: _358  and  _359
REMARK  158  A    between atoms: _362  and  _364
REMARK  159  A    between atoms: _364  and  _365
REMARK  160  A    between atoms: _364  and  _367
REMARK  161  A    between atoms: _367  and  _368
REMARK  162  A    between atoms: _368  and  _369
REMARK  163  A    between atoms: _371  and  _373
REMARK  164  A    between atoms: _373  and  _374
REMARK  165  A    between atoms: _373  and  _376
REMARK  166  A    between atoms: _376  and  _377
REMARK  167  A    between atoms: _383  and  _385
REMARK  168  A    between atoms: _385  and  _386
REMARK  169  A    between atoms: _385  and  _388
REMARK  170  A    between atoms: _388  and  _389
REMARK  171  A    between atoms: _391  and  _393
REMARK  172  A    between atoms: _393  and  _394
REMARK  173  A    between atoms: _393  and  _396
REMARK  174  A    between atoms: _396  and  _397
REMARK  175  A    between atoms: _400  and  _402
REMARK  176  A    between atoms: _402  and  _403
REMARK  177  A    between atoms: _402  and  _405
REMARK  178  A    between atoms: _405  and  _406
REMARK  179  A    between atoms: _406  and  _407
REMARK  180  A    between atoms: _407  and  _408
REMARK  181  A    between atoms: _417  and  _419
REMARK  182  A    between atoms: _419  and  _420
REMARK  183  A    between atoms: _419  and  _422
REMARK  184  A    between atoms: _422  and  _423
REMARK  185  A    between atoms: _428  and  _429
REMARK  186  A    between atoms: _431  and  _433
REMARK  187  A    between atoms: _433  and  _434
REMARK  188  A    between atoms: _433  and  _436
REMARK  189  A    between atoms: _436  and  _437
REMARK  190  A    between atoms: _437  and  _438
REMARK  191  A    between atoms: _438  and  _439
REMARK  192  A    between atoms: _448  and  _450
REMARK  193  A    between atoms: _450  and  _451
REMARK  194  A    between atoms: _450  and  _453
REMARK  195  A    between atoms: _453  and  _454
REMARK  196  A    between atoms: _457  and  _459
REMARK  197  A    between atoms: _459  and  _460
REMARK  198  A    between atoms: _459  and  _462
REMARK  199  A    between atoms: _462  and  _463
REMARK  200  A    between atoms: _466  and  _468
REMARK  201  A    between atoms: _468  and  _469
REMARK  202  A    between atoms: _468  and  _471
REMARK  203  A    between atoms: _471  and  _472
REMARK  204  A    between atoms: _472  and  _473
REMARK  205  A    between atoms: _473  and  _474
REMARK  206  A    between atoms: _474  and  _475
REMARK  207  A    between atoms: _480  and  _481
REMARK  208  A    between atoms: _486  and  _488
REMARK  209  A    between atoms: _488  and  _489
REMARK  210  A    between atoms: _488  and  _491
REMARK  211  A    between atoms: _491  and  _492
REMARK  212  A    between atoms: _492  and  _493
REMARK  213  A    between atoms: _496  and  _498
REMARK  214  A    between atoms: _498  and  _499
REMARK  215  A    between atoms: _498  and  _501
REMARK  216  A    between atoms: _501  and  _502
REMARK  217  A    between atoms: _507  and  _509
REMARK  218  A    between atoms: _509  and  _510
REMARK  219  A    between atoms: _509  and  _512
REMARK  220  A    between atoms: _512  and  _513
REMARK  221  A    between atoms: _516  and  _518
REMARK  222  A    between atoms: _518  and  _519
REMARK  223  A    between atoms: _518  and  _521
REMARK  224  A    between atoms: _521  and  _522
REMARK  225  A    between atoms: _525  and  _527
REMARK  226  A    between atoms: _527  and  _528
REMARK  227  A    between atoms: _527  and  _530
REMARK  228  A    between atoms: _530  and  _531
REMARK  229  A    between atoms: _534  and  _536
REMARK  230  A    between atoms: _536  and  _537
REMARK  231  A    between atoms: _536  and  _539
REMARK  232  A    between atoms: _539  and  _540
REMARK  233  A    between atoms: _543  and  _545
REMARK  234  A    between atoms: _545  and  _546
REMARK  235  A    between atoms: _545  and  _548
REMARK  236  A    between atoms: _548  and  _549
REMARK  237  A    between atoms: _549  and  _550
REMARK  238  A    between atoms: _555  and  _557
REMARK  239  A    between atoms: _557  and  _558
REMARK  240  A    between atoms: _557  and  _560
REMARK  241  A    between atoms: _563  and  _565
REMARK  242  A    between atoms: _565  and  _566
REMARK  243  A    between atoms: _565  and  _568
REMARK  244  A    between atoms: _568  and  _569
REMARK  245  A    between atoms: _572  and  _574
REMARK  246  A    between atoms: _574  and  _575
REMARK  247  A    between atoms: _574  and  _577
REMARK  248  A    between atoms: _577  and  _578
REMARK  249  A    between atoms: _581  and  _583
REMARK  250  A    between atoms: _583  and  _584
REMARK  251  A    between atoms: _583  and  _586
REMARK  252  A    between atoms: _586  and  _587
REMARK  253  A    between atoms: _593  and  _595
REMARK  254  A    between atoms: _595  and  _596
REMARK  255  A    between atoms: _598  and  _600
REMARK  256  A    between atoms: _600  and  _601
REMARK  257  A    between atoms: _600  and  _603
REMARK  258  A    between atoms: _603  and  _604
REMARK  259  A    between atoms: _610  and  _612
REMARK  260  A    between atoms: _612  and  _613
REMARK  261  A    between atoms: _612  and  _615
REMARK  262  A    between atoms: _617  and  _619
REMARK  263  A    between atoms: _619  and  _620
REMARK  264  A    between atoms: _622  and  _624
REMARK  265  A    between atoms: _624  and  _625
REMARK  266  A    between atoms: _624  and  _627
REMARK  267  A    between atoms: _627  and  _628
REMARK  268  A    between atoms: _632  and  _633
REMARK  269  A    between atoms: _638  and  _640
REMARK  270  A    between atoms: _640  and  _641
REMARK  271  A    between atoms: _640  and  _643
REMARK  272  A    between atoms: _643  and  _644
REMARK  273  A    between atoms: _644  and  _645
REMARK  274  A    between atoms: _648  and  _650
REMARK  275  A    between atoms: _650  and  _651
REMARK  276  A    between atoms: _650  and  _653
REMARK  277  A    between atoms: _653  and  _654
REMARK  278  A    between atoms: _659  and  _660
REMARK  279  A    between atoms: _662  and  _664
REMARK  280  A    between atoms: _664  and  _665
REMARK  281  A    between atoms: _664  and  _667
REMARK  282  A    between atoms: _670  and  _672
REMARK  283  A    between atoms: _672  and  _673
REMARK  284  A    between atoms: _672  and  _675
REMARK  285  A    between atoms: _675  and  _676
REMARK  286  A    between atoms: _679  and  _681
REMARK  287  A    between atoms: _681  and  _682
REMARK  288  A    between atoms: _681  and  _684
REMARK  289  A    between atoms: _684  and  _685
REMARK  290  A    between atoms: _685  and  _686
REMARK  291  A    between atoms: _689  and  _691
REMARK  292  A    between atoms: _691  and  _692
REMARK  293  A    between atoms: _694  and  _696
REMARK  294  A    between atoms: _696  and  _697
REMARK  295  A    between atoms: _696  and  _699
REMARK  296  A    between atoms: _699  and  _700
REMARK  297  A    between atoms: _705  and  _706
REMARK  298  A    between atoms: _709  and  _710
REMARK  299  A    between atoms: _716  and  _717
REMARK  300  A    between atoms: _722  and  _724
REMARK  301  A    between atoms: _724  and  _725
REMARK  302  A    between atoms: _724  and  _727
REMARK  303  A    between atoms: _727  and  _728
REMARK  304  A    between atoms: _734  and  _736
REMARK  305  A    between atoms: _736  and  _737
REMARK  306  A    between atoms: _736  and  _739
REMARK  307  A    between atoms: _739  and  _740
REMARK  308  A    between atoms: _746  and  _748
REMARK  309  A    between atoms: _748  and  _749
REMARK  310  A    between atoms: _752  and  _754
REMARK  311  A    between atoms: _754  and  _755
REMARK  312  A    between atoms: _754  and  _757
REMARK  313  A    between atoms: _757  and  _758
REMARK                            x       y       z     vdW  Elec       q    Type
REMARK                         _______ _______ _______ _____ _____    ______ ____
ROOT
ATOM      1  O   HOH     1       5.580   0.132  23.194  0.00  0.00    +0.000 OA
ENDROOT
TORSDOF 0
