REMARK  Name = ../refined-set-2016/4n9a/4n9a_pocket.pdb
REMARK  108 active torsions:
REMARK  status: ('A' for Active; 'I' for Inactive)
REMARK    1  A    between atoms: _1  and  _3
REMARK    2  A    between atoms: _3  and  _4
REMARK    3  A    between atoms: _3  and  _6
REMARK    4  A    between atoms: _6  and  _7
REMARK    5  A    between atoms: _9  and  _11
REMARK    6  A    between atoms: _11  and  _12
REMARK    7  A    between atoms: _11  and  _14
REMARK    8  A    between atoms: _14  and  _15
REMARK    9  A    between atoms: _18  and  _20
REMARK   10  A    between atoms: _20  and  _21
REMARK   11  A    between atoms: _20  and  _23
REMARK   12  A    between atoms: _23  and  _24
REMARK   13  A    between atoms: _24  and  _25
REMARK   14  A    between atoms: _25  and  _26
REMARK   15  A    between atoms: _35  and  _37
REMARK   16  A    between atoms: _37  and  _38
REMARK   17  A    between atoms: _37  and  _40
REMARK   18  A    between atoms: _40  and  _41
REMARK   19  A    between atoms: _46  and  _47
REMARK   20  A    between atoms: _49  and  _51
REMARK   21  A    between atoms: _51  and  _52
REMARK   22  A    between atoms: _51  and  _54
REMARK   23  A    between atoms: _54  and  _55
REMARK   24  A    between atoms: _58  and  _60
REMARK   25  A    between atoms: _60  and  _61
REMARK   26  A    between atoms: _64  and  _66
REMARK   27  A    between atoms: _66  and  _67
REMARK   28  A    between atoms: _66  and  _69
REMARK   29  A    between atoms: _69  and  _70
REMARK   30  A    between atoms: _73  and  _75
REMARK   31  A    between atoms: _75  and  _76
REMARK   32  A    between atoms: _75  and  _78
REMARK   33  A    between atoms: _78  and  _79
REMARK   34  A    between atoms: _82  and  _84
REMARK   35  A    between atoms: _84  and  _85
REMARK   36  A    between atoms: _87  and  _89
REMARK   37  A    between atoms: _89  and  _90
REMARK   38  A    between atoms: _89  and  _92
REMARK   39  A    between atoms: _92  and  _93
REMARK   40  A    between atoms: _98  and  _100
REMARK   41  A    between atoms: _100  and  _101
REMARK   42  A    between atoms: _100  and  _103
REMARK   43  A    between atoms: _103  and  _104
REMARK   44  A    between atoms: _104  and  _105
REMARK   45  A    between atoms: _105  and  _106
REMARK   46  A    between atoms: _115  and  _117
REMARK   47  A    between atoms: _117  and  _118
REMARK   48  A    between atoms: _117  and  _120
REMARK   49  A    between atoms: _120  and  _121
REMARK   50  A    between atoms: _124  and  _126
REMARK   51  A    between atoms: _126  and  _127
REMARK   52  A    between atoms: _130  and  _132
REMARK   53  A    between atoms: _132  and  _133
REMARK   54  A    between atoms: _132  and  _135
REMARK   55  A    between atoms: _135  and  _136
REMARK   56  A    between atoms: _136  and  _137
REMARK   57  A    between atoms: _137  and  _138
REMARK   58  A    between atoms: _147  and  _149
REMARK   59  A    between atoms: _149  and  _150
REMARK   60  A    between atoms: _149  and  _152
REMARK   61  A    between atoms: _152  and  _153
REMARK   62  A    between atoms: _160  and  _161
REMARK   63  A    between atoms: _166  and  _168
REMARK   64  A    between atoms: _168  and  _169
REMARK   65  A    between atoms: _168  and  _171
REMARK   66  A    between atoms: _171  and  _172
REMARK   67  A    between atoms: _175  and  _177
REMARK   68  A    between atoms: _177  and  _178
REMARK   69  A    between atoms: _177  and  _180
REMARK   70  A    between atoms: _180  and  _181
REMARK   71  A    between atoms: _186  and  _187
REMARK   72  A    between atoms: _189  and  _191
REMARK   73  A    between atoms: _191  and  _192
REMARK   74  A    between atoms: _191  and  _194
REMARK   75  A    between atoms: _194  and  _195
REMARK   76  A    between atoms: _195  and  _196
REMARK   77  A    between atoms: _196  and  _197
REMARK   78  A    between atoms: _206  and  _208
REMARK   79  A    between atoms: _208  and  _209
REMARK   80  A    between atoms: _208  and  _211
REMARK   81  A    between atoms: _214  and  _216
REMARK   82  A    between atoms: _216  and  _217
REMARK   83  A    between atoms: _216  and  _219
REMARK   84  A    between atoms: _219  and  _220
REMARK   85  A    between atoms: _223  and  _225
REMARK   86  A    between atoms: _225  and  _226
REMARK   87  A    between atoms: _225  and  _228
REMARK   88  A    between atoms: _228  and  _229
REMARK   89  A    between atoms: _231  and  _233
REMARK   90  A    between atoms: _233  and  _234
REMARK   91  A    between atoms: _233  and  _236
REMARK   92  A    between atoms: _239  and  _241
REMARK   93  A    between atoms: _241  and  _242
REMARK   94  A    between atoms: _241  and  _244
REMARK   95  A    between atoms: _244  and  _245
REMARK   96  A    between atoms: _250  and  _251
REMARK   97  A    between atoms: _253  and  _255
REMARK   98  A    between atoms: _255  and  _256
REMARK   99  A    between atoms: _255  and  _258
REMARK  100  A    between atoms: _261  and  _263
REMARK  101  A    between atoms: _263  and  _264
REMARK  102  A    between atoms: _263  and  _266
REMARK  103  A    between atoms: _269  and  _271
REMARK  104  A    between atoms: _271  and  _272
REMARK  105  A    between atoms: _271  and  _274
REMARK  106  A    between atoms: _274  and  _275
REMARK  107  A    between atoms: _275  and  _276
REMARK  108  A    between atoms: _279  and  _280
REMARK                            x       y       z     vdW  Elec       q    Type
REMARK                         _______ _______ _______ _____ _____    ______ ____
ROOT
ATOM      1  CA  SER A   1       7.204  -0.402  -0.414  0.00  0.00    +0.163 C 
ENDROOT
BRANCH   1   2
ATOM      2  N   SER A   1       7.163   0.377   0.837  0.00  0.00    -0.237 NA
ATOM      3  H   SER A   1       7.858   1.135   0.991  0.00  0.00    +0.142 HD
ENDBRANCH   1   2
BRANCH   1   4
ATOM      4  CB  SER A   1       8.114  -1.646  -0.363  0.00  0.00    +0.227 C 
ATOM      5  OG  SER A   1       8.212  -2.363  -1.339  0.00  0.00    -0.287 OA
ENDBRANCH   1   4
BRANCH   1   6
ATOM      6  C   SER A   1       7.589   0.493  -1.588  0.00  0.00    +0.162 C 
BRANCH   6   7
ATOM      7  O   SER A   1       6.612   1.521  -1.766  0.00  0.00    -0.380 OA
ATOM      8  H   SER A   1       6.873   2.094  -2.530  0.00  0.00    +0.211 HD
ENDBRANCH   6   7
ENDBRANCH   1   6
TORSDOF 4
REMARK  Name = ../refined-set-2016/4n9a/4n9a_pocket.pdb
REMARK  108 active torsions:
REMARK  status: ('A' for Active; 'I' for Inactive)
REMARK    1  A    between atoms: _1  and  _3
REMARK    2  A    between atoms: _3  and  _4
REMARK    3  A    between atoms: _3  and  _6
REMARK    4  A    between atoms: _6  and  _7
REMARK    5  A    between atoms: _9  and  _11
REMARK    6  A    between atoms: _11  and  _12
REMARK    7  A    between atoms: _11  and  _14
REMARK    8  A    between atoms: _14  and  _15
REMARK    9  A    between atoms: _18  and  _20
REMARK   10  A    between atoms: _20  and  _21
REMARK   11  A    between atoms: _20  and  _23
REMARK   12  A    between atoms: _23  and  _24
REMARK   13  A    between atoms: _24  and  _25
REMARK   14  A    between atoms: _25  and  _26
REMARK   15  A    between atoms: _35  and  _37
REMARK   16  A    between atoms: _37  and  _38
REMARK   17  A    between atoms: _37  and  _40
REMARK   18  A    between atoms: _40  and  _41
REMARK   19  A    between atoms: _46  and  _47
REMARK   20  A    between atoms: _49  and  _51
REMARK   21  A    between atoms: _51  and  _52
REMARK   22  A    between atoms: _51  and  _54
REMARK   23  A    between atoms: _54  and  _55
REMARK   24  A    between atoms: _58  and  _60
REMARK   25  A    between atoms: _60  and  _61
REMARK   26  A    between atoms: _64  and  _66
REMARK   27  A    between atoms: _66  and  _67
REMARK   28  A    between atoms: _66  and  _69
REMARK   29  A    between atoms: _69  and  _70
REMARK   30  A    between atoms: _73  and  _75
REMARK   31  A    between atoms: _75  and  _76
REMARK   32  A    between atoms: _75  and  _78
REMARK   33  A    between atoms: _78  and  _79
REMARK   34  A    between atoms: _82  and  _84
REMARK   35  A    between atoms: _84  and  _85
REMARK   36  A    between atoms: _87  and  _89
REMARK   37  A    between atoms: _89  and  _90
REMARK   38  A    between atoms: _89  and  _92
REMARK   39  A    between atoms: _92  and  _93
REMARK   40  A    between atoms: _98  and  _100
REMARK   41  A    between atoms: _100  and  _101
REMARK   42  A    between atoms: _100  and  _103
REMARK   43  A    between atoms: _103  and  _104
REMARK   44  A    between atoms: _104  and  _105
REMARK   45  A    between atoms: _105  and  _106
REMARK   46  A    between atoms: _115  and  _117
REMARK   47  A    between atoms: _117  and  _118
REMARK   48  A    between atoms: _117  and  _120
REMARK   49  A    between atoms: _120  and  _121
REMARK   50  A    between atoms: _124  and  _126
REMARK   51  A    between atoms: _126  and  _127
REMARK   52  A    between atoms: _130  and  _132
REMARK   53  A    between atoms: _132  and  _133
REMARK   54  A    between atoms: _132  and  _135
REMARK   55  A    between atoms: _135  and  _136
REMARK   56  A    between atoms: _136  and  _137
REMARK   57  A    between atoms: _137  and  _138
REMARK   58  A    between atoms: _147  and  _149
REMARK   59  A    between atoms: _149  and  _150
REMARK   60  A    between atoms: _149  and  _152
REMARK   61  A    between atoms: _152  and  _153
REMARK   62  A    between atoms: _160  and  _161
REMARK   63  A    between atoms: _166  and  _168
REMARK   64  A    between atoms: _168  and  _169
REMARK   65  A    between atoms: _168  and  _171
REMARK   66  A    between atoms: _171  and  _172
REMARK   67  A    between atoms: _175  and  _177
REMARK   68  A    between atoms: _177  and  _178
REMARK   69  A    between atoms: _177  and  _180
REMARK   70  A    between atoms: _180  and  _181
REMARK   71  A    between atoms: _186  and  _187
REMARK   72  A    between atoms: _189  and  _191
REMARK   73  A    between atoms: _191  and  _192
REMARK   74  A    between atoms: _191  and  _194
REMARK   75  A    between atoms: _194  and  _195
REMARK   76  A    between atoms: _195  and  _196
REMARK   77  A    between atoms: _196  and  _197
REMARK   78  A    between atoms: _206  and  _208
REMARK   79  A    between atoms: _208  and  _209
REMARK   80  A    between atoms: _208  and  _211
REMARK   81  A    between atoms: _214  and  _216
REMARK   82  A    between atoms: _216  and  _217
REMARK   83  A    between atoms: _216  and  _219
REMARK   84  A    between atoms: _219  and  _220
REMARK   85  A    between atoms: _223  and  _225
REMARK   86  A    between atoms: _225  and  _226
REMARK   87  A    between atoms: _225  and  _228
REMARK   88  A    between atoms: _228  and  _229
REMARK   89  A    between atoms: _231  and  _233
REMARK   90  A    between atoms: _233  and  _234
REMARK   91  A    between atoms: _233  and  _236
REMARK   92  A    between atoms: _239  and  _241
REMARK   93  A    between atoms: _241  and  _242
REMARK   94  A    between atoms: _241  and  _244
REMARK   95  A    between atoms: _244  and  _245
REMARK   96  A    between atoms: _250  and  _251
REMARK   97  A    between atoms: _253  and  _255
REMARK   98  A    between atoms: _255  and  _256
REMARK   99  A    between atoms: _255  and  _258
REMARK  100  A    between atoms: _261  and  _263
REMARK  101  A    between atoms: _263  and  _264
REMARK  102  A    between atoms: _263  and  _266
REMARK  103  A    between atoms: _269  and  _271
REMARK  104  A    between atoms: _271  and  _272
REMARK  105  A    between atoms: _271  and  _274
REMARK  106  A    between atoms: _274  and  _275
REMARK  107  A    between atoms: _275  and  _276
REMARK  108  A    between atoms: _279  and  _280
REMARK                            x       y       z     vdW  Elec       q    Type
REMARK                         _______ _______ _______ _____ _____    ______ ____
ROOT
ATOM      1  CA  ASP A   1       9.273 -12.523  -0.196  0.00  0.00    +0.144 C 
ENDROOT
BRANCH   1   2
ATOM      2  N   ASP A   1       9.120 -12.044   1.174  0.00  0.00    -0.239 NA
ATOM      3  H   ASP A   1       9.374 -11.062   1.402  0.00  0.00    +0.142 HD
ENDBRANCH   1   2
BRANCH   1   4
ATOM      4  C   ASP A   1      10.416 -13.536  -0.287  0.00  0.00    +0.225 C 
ATOM      5  O   ASP A   1      11.413 -13.390   0.424  0.00  0.00    -0.287 OA
ENDBRANCH   1   4
BRANCH   1   6
ATOM      6  CB  ASP A   1       9.551 -11.339  -1.126  0.00  0.00    +0.139 C 
BRANCH   6   7
ATOM      7  CG  ASP A   1       9.331 -11.672  -2.586  0.00  0.00    +0.367 C 
ATOM      8  OD2 ASP A   1      10.122 -12.453  -3.160  0.00  0.00    -0.246 OA
ATOM      9  OD1 ASP A   1       8.380 -11.115  -3.167  0.00  0.00    -0.246 OA
ENDBRANCH   6   7
ENDBRANCH   1   6
TORSDOF 4
REMARK  Name = ../refined-set-2016/4n9a/4n9a_pocket.pdb
REMARK  108 active torsions:
REMARK  status: ('A' for Active; 'I' for Inactive)
REMARK    1  A    between atoms: _1  and  _3
REMARK    2  A    between atoms: _3  and  _4
REMARK    3  A    between atoms: _3  and  _6
REMARK    4  A    between atoms: _6  and  _7
REMARK    5  A    between atoms: _9  and  _11
REMARK    6  A    between atoms: _11  and  _12
REMARK    7  A    between atoms: _11  and  _14
REMARK    8  A    between atoms: _14  and  _15
REMARK    9  A    between atoms: _18  and  _20
REMARK   10  A    between atoms: _20  and  _21
REMARK   11  A    between atoms: _20  and  _23
REMARK   12  A    between atoms: _23  and  _24
REMARK   13  A    between atoms: _24  and  _25
REMARK   14  A    between atoms: _25  and  _26
REMARK   15  A    between atoms: _35  and  _37
REMARK   16  A    between atoms: _37  and  _38
REMARK   17  A    between atoms: _37  and  _40
REMARK   18  A    between atoms: _40  and  _41
REMARK   19  A    between atoms: _46  and  _47
REMARK   20  A    between atoms: _49  and  _51
REMARK   21  A    between atoms: _51  and  _52
REMARK   22  A    between atoms: _51  and  _54
REMARK   23  A    between atoms: _54  and  _55
REMARK   24  A    between atoms: _58  and  _60
REMARK   25  A    between atoms: _60  and  _61
REMARK   26  A    between atoms: _64  and  _66
REMARK   27  A    between atoms: _66  and  _67
REMARK   28  A    between atoms: _66  and  _69
REMARK   29  A    between atoms: _69  and  _70
REMARK   30  A    between atoms: _73  and  _75
REMARK   31  A    between atoms: _75  and  _76
REMARK   32  A    between atoms: _75  and  _78
REMARK   33  A    between atoms: _78  and  _79
REMARK   34  A    between atoms: _82  and  _84
REMARK   35  A    between atoms: _84  and  _85
REMARK   36  A    between atoms: _87  and  _89
REMARK   37  A    between atoms: _89  and  _90
REMARK   38  A    between atoms: _89  and  _92
REMARK   39  A    between atoms: _92  and  _93
REMARK   40  A    between atoms: _98  and  _100
REMARK   41  A    between atoms: _100  and  _101
REMARK   42  A    between atoms: _100  and  _103
REMARK   43  A    between atoms: _103  and  _104
REMARK   44  A    between atoms: _104  and  _105
REMARK   45  A    between atoms: _105  and  _106
REMARK   46  A    between atoms: _115  and  _117
REMARK   47  A    between atoms: _117  and  _118
REMARK   48  A    between atoms: _117  and  _120
REMARK   49  A    between atoms: _120  and  _121
REMARK   50  A    between atoms: _124  and  _126
REMARK   51  A    between atoms: _126  and  _127
REMARK   52  A    between atoms: _130  and  _132
REMARK   53  A    between atoms: _132  and  _133
REMARK   54  A    between atoms: _132  and  _135
REMARK   55  A    between atoms: _135  and  _136
REMARK   56  A    between atoms: _136  and  _137
REMARK   57  A    between atoms: _137  and  _138
REMARK   58  A    between atoms: _147  and  _149
REMARK   59  A    between atoms: _149  and  _150
REMARK   60  A    between atoms: _149  and  _152
REMARK   61  A    between atoms: _152  and  _153
REMARK   62  A    between atoms: _160  and  _161
REMARK   63  A    between atoms: _166  and  _168
REMARK   64  A    between atoms: _168  and  _169
REMARK   65  A    between atoms: _168  and  _171
REMARK   66  A    between atoms: _171  and  _172
REMARK   67  A    between atoms: _175  and  _177
REMARK   68  A    between atoms: _177  and  _178
REMARK   69  A    between atoms: _177  and  _180
REMARK   70  A    between atoms: _180  and  _181
REMARK   71  A    between atoms: _186  and  _187
REMARK   72  A    between atoms: _189  and  _191
REMARK   73  A    between atoms: _191  and  _192
REMARK   74  A    between atoms: _191  and  _194
REMARK   75  A    between atoms: _194  and  _195
REMARK   76  A    between atoms: _195  and  _196
REMARK   77  A    between atoms: _196  and  _197
REMARK   78  A    between atoms: _206  and  _208
REMARK   79  A    between atoms: _208  and  _209
REMARK   80  A    between atoms: _208  and  _211
REMARK   81  A    between atoms: _214  and  _216
REMARK   82  A    between atoms: _216  and  _217
REMARK   83  A    between atoms: _216  and  _219
REMARK   84  A    between atoms: _219  and  _220
REMARK   85  A    between atoms: _223  and  _225
REMARK   86  A    between atoms: _225  and  _226
REMARK   87  A    between atoms: _225  and  _228
REMARK   88  A    between atoms: _228  and  _229
REMARK   89  A    between atoms: _231  and  _233
REMARK   90  A    between atoms: _233  and  _234
REMARK   91  A    between atoms: _233  and  _236
REMARK   92  A    between atoms: _239  and  _241
REMARK   93  A    between atoms: _241  and  _242
REMARK   94  A    between atoms: _241  and  _244
REMARK   95  A    between atoms: _244  and  _245
REMARK   96  A    between atoms: _250  and  _251
REMARK   97  A    between atoms: _253  and  _255
REMARK   98  A    between atoms: _255  and  _256
REMARK   99  A    between atoms: _255  and  _258
REMARK  100  A    between atoms: _261  and  _263
REMARK  101  A    between atoms: _263  and  _264
REMARK  102  A    between atoms: _263  and  _266
REMARK  103  A    between atoms: _269  and  _271
REMARK  104  A    between atoms: _271  and  _272
REMARK  105  A    between atoms: _271  and  _274
REMARK  106  A    between atoms: _274  and  _275
REMARK  107  A    between atoms: _275  and  _276
REMARK  108  A    between atoms: _279  and  _280
REMARK                            x       y       z     vdW  Elec       q    Type
REMARK                         _______ _______ _______ _____ _____    ______ ____
ROOT
ATOM      1  NE  ARG A   1      10.572 -11.642  -5.968  0.00  0.00    -0.265 N 
ATOM      2  HE  ARG A   1      10.384 -11.841  -4.965  0.00  0.00    +0.259 HD
ATOM      3  CZ  ARG A   1       9.575 -11.131  -6.691  0.00  0.00    +0.342 C 
ATOM      4  NH2 ARG A   1       8.398 -10.898  -6.119  0.00  0.00    -0.292 N 
ATOM      5 HH21 ARG A   1       8.258 -11.114  -5.111  0.00  0.00    +0.255 HD
ATOM      6 HH22 ARG A   1       7.617 -10.500  -6.679  0.00  0.00    +0.255 HD
ATOM      7  NH1 ARG A   1       9.743 -10.837  -7.979  0.00  0.00    -0.292 N 
ATOM      8 HH11 ARG A   1      10.662 -11.005  -8.435  0.00  0.00    +0.255 HD
ATOM      9 HH12 ARG A   1       8.955 -10.439  -8.529  0.00  0.00    +0.255 HD
ENDROOT
BRANCH   1  10
ATOM     10  CD  ARG A   1      11.906 -11.944  -6.475  0.00  0.00    +0.174 C 
BRANCH  10  11
ATOM     11  CG  ARG A   1      12.674 -12.843  -5.514  0.00  0.00    +0.045 C 
BRANCH  11  12
ATOM     12  CB  ARG A   1      13.154 -12.074  -4.282  0.00  0.00    +0.029 C 
BRANCH  12  13
ATOM     13  CA  ARG A   1      13.549 -12.957  -3.092  0.00  0.00    +0.133 C 
BRANCH  13  14
ATOM     14  N   ARG A   1      12.412 -13.750  -2.639  0.00  0.00    -0.239 NA
ATOM     15  H   ARG A   1      11.447 -13.396  -2.797  0.00  0.00    +0.142 HD
ENDBRANCH  13  14
BRANCH  13  16
ATOM     16  C   ARG A   1      13.922 -12.112  -1.893  0.00  0.00    +0.224 C 
ATOM     17  O   ARG A   1      13.363 -11.041  -1.706  0.00  0.00    -0.287 OA
ENDBRANCH  13  16
ENDBRANCH  12  13
ENDBRANCH  11  12
ENDBRANCH  10  11
ENDBRANCH   1  10
TORSDOF 6
REMARK  Name = ../refined-set-2016/4n9a/4n9a_pocket.pdb
REMARK  108 active torsions:
REMARK  status: ('A' for Active; 'I' for Inactive)
REMARK    1  A    between atoms: _1  and  _3
REMARK    2  A    between atoms: _3  and  _4
REMARK    3  A    between atoms: _3  and  _6
REMARK    4  A    between atoms: _6  and  _7
REMARK    5  A    between atoms: _9  and  _11
REMARK    6  A    between atoms: _11  and  _12
REMARK    7  A    between atoms: _11  and  _14
REMARK    8  A    between atoms: _14  and  _15
REMARK    9  A    between atoms: _18  and  _20
REMARK   10  A    between atoms: _20  and  _21
REMARK   11  A    between atoms: _20  and  _23
REMARK   12  A    between atoms: _23  and  _24
REMARK   13  A    between atoms: _24  and  _25
REMARK   14  A    between atoms: _25  and  _26
REMARK   15  A    between atoms: _35  and  _37
REMARK   16  A    between atoms: _37  and  _38
REMARK   17  A    between atoms: _37  and  _40
REMARK   18  A    between atoms: _40  and  _41
REMARK   19  A    between atoms: _46  and  _47
REMARK   20  A    between atoms: _49  and  _51
REMARK   21  A    between atoms: _51  and  _52
REMARK   22  A    between atoms: _51  and  _54
REMARK   23  A    between atoms: _54  and  _55
REMARK   24  A    between atoms: _58  and  _60
REMARK   25  A    between atoms: _60  and  _61
REMARK   26  A    between atoms: _64  and  _66
REMARK   27  A    between atoms: _66  and  _67
REMARK   28  A    between atoms: _66  and  _69
REMARK   29  A    between atoms: _69  and  _70
REMARK   30  A    between atoms: _73  and  _75
REMARK   31  A    between atoms: _75  and  _76
REMARK   32  A    between atoms: _75  and  _78
REMARK   33  A    between atoms: _78  and  _79
REMARK   34  A    between atoms: _82  and  _84
REMARK   35  A    between atoms: _84  and  _85
REMARK   36  A    between atoms: _87  and  _89
REMARK   37  A    between atoms: _89  and  _90
REMARK   38  A    between atoms: _89  and  _92
REMARK   39  A    between atoms: _92  and  _93
REMARK   40  A    between atoms: _98  and  _100
REMARK   41  A    between atoms: _100  and  _101
REMARK   42  A    between atoms: _100  and  _103
REMARK   43  A    between atoms: _103  and  _104
REMARK   44  A    between atoms: _104  and  _105
REMARK   45  A    between atoms: _105  and  _106
REMARK   46  A    between atoms: _115  and  _117
REMARK   47  A    between atoms: _117  and  _118
REMARK   48  A    between atoms: _117  and  _120
REMARK   49  A    between atoms: _120  and  _121
REMARK   50  A    between atoms: _124  and  _126
REMARK   51  A    between atoms: _126  and  _127
REMARK   52  A    between atoms: _130  and  _132
REMARK   53  A    between atoms: _132  and  _133
REMARK   54  A    between atoms: _132  and  _135
REMARK   55  A    between atoms: _135  and  _136
REMARK   56  A    between atoms: _136  and  _137
REMARK   57  A    between atoms: _137  and  _138
REMARK   58  A    between atoms: _147  and  _149
REMARK   59  A    between atoms: _149  and  _150
REMARK   60  A    between atoms: _149  and  _152
REMARK   61  A    between atoms: _152  and  _153
REMARK   62  A    between atoms: _160  and  _161
REMARK   63  A    between atoms: _166  and  _168
REMARK   64  A    between atoms: _168  and  _169
REMARK   65  A    between atoms: _168  and  _171
REMARK   66  A    between atoms: _171  and  _172
REMARK   67  A    between atoms: _175  and  _177
REMARK   68  A    between atoms: _177  and  _178
REMARK   69  A    between atoms: _177  and  _180
REMARK   70  A    between atoms: _180  and  _181
REMARK   71  A    between atoms: _186  and  _187
REMARK   72  A    between atoms: _189  and  _191
REMARK   73  A    between atoms: _191  and  _192
REMARK   74  A    between atoms: _191  and  _194
REMARK   75  A    between atoms: _194  and  _195
REMARK   76  A    between atoms: _195  and  _196
REMARK   77  A    between atoms: _196  and  _197
REMARK   78  A    between atoms: _206  and  _208
REMARK   79  A    between atoms: _208  and  _209
REMARK   80  A    between atoms: _208  and  _211
REMARK   81  A    between atoms: _214  and  _216
REMARK   82  A    between atoms: _216  and  _217
REMARK   83  A    between atoms: _216  and  _219
REMARK   84  A    between atoms: _219  and  _220
REMARK   85  A    between atoms: _223  and  _225
REMARK   86  A    between atoms: _225  and  _226
REMARK   87  A    between atoms: _225  and  _228
REMARK   88  A    between atoms: _228  and  _229
REMARK   89  A    between atoms: _231  and  _233
REMARK   90  A    between atoms: _233  and  _234
REMARK   91  A    between atoms: _233  and  _236
REMARK   92  A    between atoms: _239  and  _241
REMARK   93  A    between atoms: _241  and  _242
REMARK   94  A    between atoms: _241  and  _244
REMARK   95  A    between atoms: _244  and  _245
REMARK   96  A    between atoms: _250  and  _251
REMARK   97  A    between atoms: _253  and  _255
REMARK   98  A    between atoms: _255  and  _256
REMARK   99  A    between atoms: _255  and  _258
REMARK  100  A    between atoms: _261  and  _263
REMARK  101  A    between atoms: _263  and  _264
REMARK  102  A    between atoms: _263  and  _266
REMARK  103  A    between atoms: _269  and  _271
REMARK  104  A    between atoms: _271  and  _272
REMARK  105  A    between atoms: _271  and  _274
REMARK  106  A    between atoms: _274  and  _275
REMARK  107  A    between atoms: _275  and  _276
REMARK  108  A    between atoms: _279  and  _280
REMARK                            x       y       z     vdW  Elec       q    Type
REMARK                         _______ _______ _______ _____ _____    ______ ____
ROOT
ATOM      1  CA  TYR A   1      16.839  -8.906  -0.880  0.00  0.00    +0.149 C 
ENDROOT
BRANCH   1   2
ATOM      2  C   TYR A   1      15.752  -7.845  -1.047  0.00  0.00    +0.239 C 
ATOM      3  O   TYR A   1      16.003  -6.677  -0.778  0.00  0.00    -0.274 OA
ATOM      4  N   LEU A   2      14.557  -8.245  -1.487  0.00  0.00    -0.298 N 
ATOM      5  H   LEU A   2      14.439  -9.227  -1.810  0.00  0.00    +0.150 HD
BRANCH   4   6
ATOM      6  CA  LEU A   2      13.390  -7.323  -1.528  0.00  0.00    +0.137 C 
BRANCH   6   7
ATOM      7  C   LEU A   2      12.736  -7.086  -0.163  0.00  0.00    +0.227 C 
ATOM      8  O   LEU A   2      11.931  -6.164  -0.016  0.00  0.00    -0.286 OA
ENDBRANCH   6   7
BRANCH   6   9
ATOM      9  CB  LEU A   2      12.312  -7.823  -2.497  0.00  0.00    +0.028 C 
BRANCH   9  10
ATOM     10  CG  LEU A   2      12.748  -8.046  -3.936  0.00  0.00    +0.002 C 
ATOM     11  CD2 LEU A   2      13.455  -6.810  -4.487  0.00  0.00    +0.000 C 
ATOM     12  CD1 LEU A   2      11.518  -8.393  -4.761  0.00  0.00    +0.000 C 
ENDBRANCH   9  10
ENDBRANCH   6   9
ENDBRANCH   4   6
ENDBRANCH   1   2
BRANCH   1  13
ATOM     13  N   TYR A   1      16.258 -10.241  -0.777  0.00  0.00    -0.238 NA
ATOM     14  H   TYR A   1      16.413 -10.916  -1.553  0.00  0.00    +0.142 HD
ENDBRANCH   1  13
BRANCH   1  15
ATOM     15  CB  TYR A   1      17.855  -8.844  -2.041  0.00  0.00    +0.053 C 
BRANCH  15  16
ATOM     16  CG  TYR A   1      17.328  -9.410  -3.329  0.00  0.00    -0.020 A 
ATOM     17  CD2 TYR A   1      17.520 -10.760  -3.671  0.00  0.00    -0.001 A 
ATOM     18  CE2 TYR A   1      16.995 -11.279  -4.845  0.00  0.00    +0.036 A 
ATOM     19  CZ  TYR A   1      16.283 -10.445  -5.682  0.00  0.00    +0.134 A 
ATOM     20  CE1 TYR A   1      16.073  -9.117  -5.353  0.00  0.00    +0.036 A 
ATOM     21  CD1 TYR A   1      16.593  -8.612  -4.194  0.00  0.00    -0.001 A 
BRANCH  19  22
ATOM     22  OH  TYR A   1      15.739 -10.887  -6.846  0.00  0.00    -0.506 OA
ATOM     23  HH  TYR A   1      15.273 -10.139  -7.296  0.00  0.00    +0.292 HD
ENDBRANCH  19  22
ENDBRANCH  15  16
ENDBRANCH   1  15
TORSDOF 9
REMARK  Name = ../refined-set-2016/4n9a/4n9a_pocket.pdb
REMARK  108 active torsions:
REMARK  status: ('A' for Active; 'I' for Inactive)
REMARK    1  A    between atoms: _1  and  _3
REMARK    2  A    between atoms: _3  and  _4
REMARK    3  A    between atoms: _3  and  _6
REMARK    4  A    between atoms: _6  and  _7
REMARK    5  A    between atoms: _9  and  _11
REMARK    6  A    between atoms: _11  and  _12
REMARK    7  A    between atoms: _11  and  _14
REMARK    8  A    between atoms: _14  and  _15
REMARK    9  A    between atoms: _18  and  _20
REMARK   10  A    between atoms: _20  and  _21
REMARK   11  A    between atoms: _20  and  _23
REMARK   12  A    between atoms: _23  and  _24
REMARK   13  A    between atoms: _24  and  _25
REMARK   14  A    between atoms: _25  and  _26
REMARK   15  A    between atoms: _35  and  _37
REMARK   16  A    between atoms: _37  and  _38
REMARK   17  A    between atoms: _37  and  _40
REMARK   18  A    between atoms: _40  and  _41
REMARK   19  A    between atoms: _46  and  _47
REMARK   20  A    between atoms: _49  and  _51
REMARK   21  A    between atoms: _51  and  _52
REMARK   22  A    between atoms: _51  and  _54
REMARK   23  A    between atoms: _54  and  _55
REMARK   24  A    between atoms: _58  and  _60
REMARK   25  A    between atoms: _60  and  _61
REMARK   26  A    between atoms: _64  and  _66
REMARK   27  A    between atoms: _66  and  _67
REMARK   28  A    between atoms: _66  and  _69
REMARK   29  A    between atoms: _69  and  _70
REMARK   30  A    between atoms: _73  and  _75
REMARK   31  A    between atoms: _75  and  _76
REMARK   32  A    between atoms: _75  and  _78
REMARK   33  A    between atoms: _78  and  _79
REMARK   34  A    between atoms: _82  and  _84
REMARK   35  A    between atoms: _84  and  _85
REMARK   36  A    between atoms: _87  and  _89
REMARK   37  A    between atoms: _89  and  _90
REMARK   38  A    between atoms: _89  and  _92
REMARK   39  A    between atoms: _92  and  _93
REMARK   40  A    between atoms: _98  and  _100
REMARK   41  A    between atoms: _100  and  _101
REMARK   42  A    between atoms: _100  and  _103
REMARK   43  A    between atoms: _103  and  _104
REMARK   44  A    between atoms: _104  and  _105
REMARK   45  A    between atoms: _105  and  _106
REMARK   46  A    between atoms: _115  and  _117
REMARK   47  A    between atoms: _117  and  _118
REMARK   48  A    between atoms: _117  and  _120
REMARK   49  A    between atoms: _120  and  _121
REMARK   50  A    between atoms: _124  and  _126
REMARK   51  A    between atoms: _126  and  _127
REMARK   52  A    between atoms: _130  and  _132
REMARK   53  A    between atoms: _132  and  _133
REMARK   54  A    between atoms: _132  and  _135
REMARK   55  A    between atoms: _135  and  _136
REMARK   56  A    between atoms: _136  and  _137
REMARK   57  A    between atoms: _137  and  _138
REMARK   58  A    between atoms: _147  and  _149
REMARK   59  A    between atoms: _149  and  _150
REMARK   60  A    between atoms: _149  and  _152
REMARK   61  A    between atoms: _152  and  _153
REMARK   62  A    between atoms: _160  and  _161
REMARK   63  A    between atoms: _166  and  _168
REMARK   64  A    between atoms: _168  and  _169
REMARK   65  A    between atoms: _168  and  _171
REMARK   66  A    between atoms: _171  and  _172
REMARK   67  A    between atoms: _175  and  _177
REMARK   68  A    between atoms: _177  and  _178
REMARK   69  A    between atoms: _177  and  _180
REMARK   70  A    between atoms: _180  and  _181
REMARK   71  A    between atoms: _186  and  _187
REMARK   72  A    between atoms: _189  and  _191
REMARK   73  A    between atoms: _191  and  _192
REMARK   74  A    between atoms: _191  and  _194
REMARK   75  A    between atoms: _194  and  _195
REMARK   76  A    between atoms: _195  and  _196
REMARK   77  A    between atoms: _196  and  _197
REMARK   78  A    between atoms: _206  and  _208
REMARK   79  A    between atoms: _208  and  _209
REMARK   80  A    between atoms: _208  and  _211
REMARK   81  A    between atoms: _214  and  _216
REMARK   82  A    between atoms: _216  and  _217
REMARK   83  A    between atoms: _216  and  _219
REMARK   84  A    between atoms: _219  and  _220
REMARK   85  A    between atoms: _223  and  _225
REMARK   86  A    between atoms: _225  and  _226
REMARK   87  A    between atoms: _225  and  _228
REMARK   88  A    between atoms: _228  and  _229
REMARK   89  A    between atoms: _231  and  _233
REMARK   90  A    between atoms: _233  and  _234
REMARK   91  A    between atoms: _233  and  _236
REMARK   92  A    between atoms: _239  and  _241
REMARK   93  A    between atoms: _241  and  _242
REMARK   94  A    between atoms: _241  and  _244
REMARK   95  A    between atoms: _244  and  _245
REMARK   96  A    between atoms: _250  and  _251
REMARK   97  A    between atoms: _253  and  _255
REMARK   98  A    between atoms: _255  and  _256
REMARK   99  A    between atoms: _255  and  _258
REMARK  100  A    between atoms: _261  and  _263
REMARK  101  A    between atoms: _263  and  _264
REMARK  102  A    between atoms: _263  and  _266
REMARK  103  A    between atoms: _269  and  _271
REMARK  104  A    between atoms: _271  and  _272
REMARK  105  A    between atoms: _271  and  _274
REMARK  106  A    between atoms: _274  and  _275
REMARK  107  A    between atoms: _275  and  _276
REMARK  108  A    between atoms: _279  and  _280
REMARK                            x       y       z     vdW  Elec       q    Type
REMARK                         _______ _______ _______ _____ _____    ______ ____
ROOT
ATOM      1  CA  HIS A   5       4.395  -4.863  -7.716  0.00  0.00    +0.155 C 
ENDROOT
BRANCH   1   3
ATOM      2  C   GLY A   4       6.586  -5.956  -8.046  0.00  0.00    +0.243 C 
ATOM      3  N   HIS A   5       5.687  -5.365  -7.254  0.00  0.00    -0.297 N 
ATOM      4  H   HIS A   5       5.921  -5.256  -6.247  0.00  0.00    +0.150 HD
ATOM      5  O   GLY A   4       6.472  -6.025  -9.263  0.00  0.00    -0.273 OA
BRANCH   2   6
ATOM      6  CA  GLY A   4       7.810  -6.558  -7.374  0.00  0.00    +0.176 C 
BRANCH   6   9
ATOM      7  C   ASP A   3       7.760  -6.541  -4.948  0.00  0.00    +0.241 C 
ATOM      8  O   ASP A   3       7.200  -7.626  -4.936  0.00  0.00    -0.273 OA
ATOM      9  N   GLY A   4       8.136  -5.964  -6.081  0.00  0.00    -0.295 N 
ATOM     10  H   GLY A   4       8.672  -5.073  -6.048  0.00  0.00    +0.150 HD
BRANCH   7  11
ATOM     11  CA  ASP A   3       8.070  -5.798  -3.633  0.00  0.00    +0.160 C 
BRANCH  11  14
ATOM     12  C   THR A   2       9.755  -4.046  -3.548  0.00  0.00    +0.243 C 
ATOM     13  O   THR A   2      10.599  -4.761  -3.012  0.00  0.00    -0.273 OA
ATOM     14  N   ASP A   3       8.531  -4.439  -3.849  0.00  0.00    -0.296 N 
ATOM     15  H   ASP A   3       7.871  -3.747  -4.257  0.00  0.00    +0.150 HD
BRANCH  12  16
ATOM     16  CA  THR A   2      10.072  -2.615  -3.906  0.00  0.00    +0.176 C 
BRANCH  16  18
ATOM     17  C   ALA A   1      11.164  -0.734  -2.876  0.00  0.00    +0.238 C 
ATOM     18  N   THR A   2      11.025  -2.053  -2.993  0.00  0.00    -0.295 N 
ATOM     19  H   THR A   2      11.615  -2.684  -2.415  0.00  0.00    +0.150 HD
ATOM     20  O   ALA A   1      10.489   0.055  -3.525  0.00  0.00    -0.274 OA
BRANCH  17  21
ATOM     21  CA  ALA A   1      12.202  -0.237  -1.889  0.00  0.00    +0.145 C 
ATOM     22  CB  ALA A   1      11.539   0.230  -0.618  0.00  0.00    +0.028 C 
BRANCH  21  23
ATOM     23  N   ALA A   1      12.934   0.849  -2.470  0.00  0.00    -0.238 NA
ATOM     24  H   ALA A   1      12.422   1.545  -3.049  0.00  0.00    +0.142 HD
ENDBRANCH  21  23
ENDBRANCH  17  21
ENDBRANCH  16  18
BRANCH  16  25
ATOM     25  CB  THR A   2      10.547  -2.489  -5.368  0.00  0.00    +0.137 C 
ATOM     26  CG2 THR A   2      11.806  -3.302  -5.616  0.00  0.00    +0.034 C 
BRANCH  25  27
ATOM     27  OG1 THR A   2       9.499  -2.897  -6.271  0.00  0.00    -0.382 OA
ATOM     28  HG1 THR A   2       8.706  -2.319  -6.137  0.00  0.00    +0.210 HD
ENDBRANCH  25  27
ENDBRANCH  16  25
ENDBRANCH  12  16
ENDBRANCH  11  14
BRANCH  11  29
ATOM     29  CB  ASP A   3       6.868  -5.788  -2.678  0.00  0.00    +0.143 C 
BRANCH  29  30
ATOM     30  CG  ASP A   3       5.650  -5.019  -3.228  0.00  0.00    +0.367 C 
ATOM     31  OD2 ASP A   3       4.711  -4.800  -2.426  0.00  0.00    -0.246 OA
ATOM     32  OD1 ASP A   3       5.623  -4.639  -4.418  0.00  0.00    -0.246 OA
ENDBRANCH  29  30
ENDBRANCH  11  29
ENDBRANCH   7  11
ENDBRANCH   6   9
ENDBRANCH   2   6
ENDBRANCH   1   3
BRANCH   1  33
ATOM     33  C   HIS A   5       4.329  -3.333  -7.704  0.00  0.00    +0.241 C 
ATOM     34  N   ARG A   6       5.021  -2.731  -6.742  0.00  0.00    -0.297 N 
ATOM     35  H   ARG A   6       5.467  -3.319  -6.009  0.00  0.00    +0.150 HD
ATOM     36  O   HIS A   5       3.644  -2.723  -8.530  0.00  0.00    -0.273 OA
BRANCH  34  37
ATOM     37  CA  ARG A   6       5.183  -1.292  -6.668  0.00  0.00    +0.149 C 
BRANCH  37  38
ATOM     38  C   ARG A   6       6.563  -0.965  -6.130  0.00  0.00    +0.241 C 
ATOM     39  O   ARG A   6       7.197  -1.793  -5.486  0.00  0.00    -0.273 OA
ATOM     40  N   LEU A   7       6.998   0.261  -6.379  0.00  0.00    -0.297 N 
ATOM     41  H   LEU A   7       6.357   0.939  -6.837  0.00  0.00    +0.150 HD
BRANCH  40  42
ATOM     42  CA  LEU A   7       8.334   0.685  -6.034  0.00  0.00    +0.149 C 
BRANCH  42  43
ATOM     43  C   LEU A   7       8.340   2.103  -5.498  0.00  0.00    +0.241 C 
ATOM     44  N   ALA A   8       9.230   2.357  -4.548  0.00  0.00    -0.298 N 
ATOM     45  H   ALA A   8       9.757   1.561  -4.136  0.00  0.00    +0.150 HD
ATOM     46  O   LEU A   7       7.577   2.948  -5.946  0.00  0.00    -0.273 OA
BRANCH  44  47
ATOM     47  CA  ALA A   8       9.504   3.707  -4.054  0.00  0.00    +0.137 C 
ATOM     48  CB  ALA A   8       9.057   3.804  -2.613  0.00  0.00    +0.030 C 
BRANCH  47  49
ATOM     49  C   ALA A   8      11.010   4.050  -4.164  0.00  0.00    +0.227 C 
ATOM     50  O   ALA A   8      11.856   3.230  -3.814  0.00  0.00    -0.286 OA
ENDBRANCH  47  49
ENDBRANCH  44  47
ENDBRANCH  42  43
BRANCH  42  51
ATOM     51  CB  LEU A   7       9.243   0.563  -7.262  0.00  0.00    +0.029 C 
BRANCH  51  52
ATOM     52  CG  LEU A   7      10.683   1.102  -7.188  0.00  0.00    +0.002 C 
ATOM     53  CD2 LEU A   7      10.793   2.550  -7.674  0.00  0.00    +0.000 C 
ATOM     54  CD1 LEU A   7      11.614   0.236  -8.013  0.00  0.00    +0.000 C 
ENDBRANCH  51  52
ENDBRANCH  42  51
ENDBRANCH  40  42
ENDBRANCH  37  38
BRANCH  37  55
ATOM     55  CB  ARG A   6       4.113  -0.650  -5.785  0.00  0.00    +0.033 C 
BRANCH  55  56
ATOM     56  CG  ARG A   6       3.737  -1.432  -4.540  0.00  0.00    +0.045 C 
BRANCH  56  57
ATOM     57  CD  ARG A   6       4.711  -1.243  -3.376  0.00  0.00    +0.174 C 
BRANCH  57  58
ATOM     58  NE  ARG A   6       4.270  -2.002  -2.216  0.00  0.00    -0.265 N 
ATOM     59  CZ  ARG A   6       3.320  -1.625  -1.354  0.00  0.00    +0.342 C 
ATOM     60  NH2 ARG A   6       3.028  -2.410  -0.343  0.00  0.00    -0.292 N 
ATOM     61 HH21 ARG A   6       2.292  -2.131   0.336  0.00  0.00    +0.255 HD
ATOM     62 HH22 ARG A   6       3.533  -3.311  -0.221  0.00  0.00    +0.255 HD
ATOM     63  NH1 ARG A   6       2.671  -0.465  -1.477  0.00  0.00    -0.292 N 
ATOM     64 HH11 ARG A   6       1.937  -0.204  -0.788  0.00  0.00    +0.255 HD
ATOM     65 HH12 ARG A   6       2.899   0.178  -2.262  0.00  0.00    +0.255 HD
ATOM     66  HE  ARG A   6       4.734  -2.917  -2.042  0.00  0.00    +0.259 HD
ENDBRANCH  57  58
ENDBRANCH  56  57
ENDBRANCH  55  56
ENDBRANCH  37  55
ENDBRANCH  34  37
ENDBRANCH   1  33
BRANCH   1  67
ATOM     67  CB  HIS A   5       3.292  -5.405  -6.811  0.00  0.00    +0.076 C 
BRANCH  67  68
ATOM     68  CG  HIS A   5       3.275  -6.897  -6.714  0.00  0.00    +0.082 A 
ATOM     69  CD2 HIS A   5       3.443  -7.724  -5.658  0.00  0.00    +0.115 A 
ATOM     70  NE2 HIS A   5       3.332  -9.010  -6.130  0.00  0.00    -0.221 NA
ATOM     71  CE1 HIS A   5       3.097  -8.973  -7.430  0.00  0.00    +0.199 A 
ATOM     72  ND1 HIS A   5       3.057  -7.710  -7.807  0.00  0.00    -0.227 NA
ENDBRANCH  67  68
ENDBRANCH   1  67
TORSDOF 28
REMARK  Name = ../refined-set-2016/4n9a/4n9a_pocket.pdb
REMARK  108 active torsions:
REMARK  status: ('A' for Active; 'I' for Inactive)
REMARK    1  A    between atoms: _1  and  _3
REMARK    2  A    between atoms: _3  and  _4
REMARK    3  A    between atoms: _3  and  _6
REMARK    4  A    between atoms: _6  and  _7
REMARK    5  A    between atoms: _9  and  _11
REMARK    6  A    between atoms: _11  and  _12
REMARK    7  A    between atoms: _11  and  _14
REMARK    8  A    between atoms: _14  and  _15
REMARK    9  A    between atoms: _18  and  _20
REMARK   10  A    between atoms: _20  and  _21
REMARK   11  A    between atoms: _20  and  _23
REMARK   12  A    between atoms: _23  and  _24
REMARK   13  A    between atoms: _24  and  _25
REMARK   14  A    between atoms: _25  and  _26
REMARK   15  A    between atoms: _35  and  _37
REMARK   16  A    between atoms: _37  and  _38
REMARK   17  A    between atoms: _37  and  _40
REMARK   18  A    between atoms: _40  and  _41
REMARK   19  A    between atoms: _46  and  _47
REMARK   20  A    between atoms: _49  and  _51
REMARK   21  A    between atoms: _51  and  _52
REMARK   22  A    between atoms: _51  and  _54
REMARK   23  A    between atoms: _54  and  _55
REMARK   24  A    between atoms: _58  and  _60
REMARK   25  A    between atoms: _60  and  _61
REMARK   26  A    between atoms: _64  and  _66
REMARK   27  A    between atoms: _66  and  _67
REMARK   28  A    between atoms: _66  and  _69
REMARK   29  A    between atoms: _69  and  _70
REMARK   30  A    between atoms: _73  and  _75
REMARK   31  A    between atoms: _75  and  _76
REMARK   32  A    between atoms: _75  and  _78
REMARK   33  A    between atoms: _78  and  _79
REMARK   34  A    between atoms: _82  and  _84
REMARK   35  A    between atoms: _84  and  _85
REMARK   36  A    between atoms: _87  and  _89
REMARK   37  A    between atoms: _89  and  _90
REMARK   38  A    between atoms: _89  and  _92
REMARK   39  A    between atoms: _92  and  _93
REMARK   40  A    between atoms: _98  and  _100
REMARK   41  A    between atoms: _100  and  _101
REMARK   42  A    between atoms: _100  and  _103
REMARK   43  A    between atoms: _103  and  _104
REMARK   44  A    between atoms: _104  and  _105
REMARK   45  A    between atoms: _105  and  _106
REMARK   46  A    between atoms: _115  and  _117
REMARK   47  A    between atoms: _117  and  _118
REMARK   48  A    between atoms: _117  and  _120
REMARK   49  A    between atoms: _120  and  _121
REMARK   50  A    between atoms: _124  and  _126
REMARK   51  A    between atoms: _126  and  _127
REMARK   52  A    between atoms: _130  and  _132
REMARK   53  A    between atoms: _132  and  _133
REMARK   54  A    between atoms: _132  and  _135
REMARK   55  A    between atoms: _135  and  _136
REMARK   56  A    between atoms: _136  and  _137
REMARK   57  A    between atoms: _137  and  _138
REMARK   58  A    between atoms: _147  and  _149
REMARK   59  A    between atoms: _149  and  _150
REMARK   60  A    between atoms: _149  and  _152
REMARK   61  A    between atoms: _152  and  _153
REMARK   62  A    between atoms: _160  and  _161
REMARK   63  A    between atoms: _166  and  _168
REMARK   64  A    between atoms: _168  and  _169
REMARK   65  A    between atoms: _168  and  _171
REMARK   66  A    between atoms: _171  and  _172
REMARK   67  A    between atoms: _175  and  _177
REMARK   68  A    between atoms: _177  and  _178
REMARK   69  A    between atoms: _177  and  _180
REMARK   70  A    between atoms: _180  and  _181
REMARK   71  A    between atoms: _186  and  _187
REMARK   72  A    between atoms: _189  and  _191
REMARK   73  A    between atoms: _191  and  _192
REMARK   74  A    between atoms: _191  and  _194
REMARK   75  A    between atoms: _194  and  _195
REMARK   76  A    between atoms: _195  and  _196
REMARK   77  A    between atoms: _196  and  _197
REMARK   78  A    between atoms: _206  and  _208
REMARK   79  A    between atoms: _208  and  _209
REMARK   80  A    between atoms: _208  and  _211
REMARK   81  A    between atoms: _214  and  _216
REMARK   82  A    between atoms: _216  and  _217
REMARK   83  A    between atoms: _216  and  _219
REMARK   84  A    between atoms: _219  and  _220
REMARK   85  A    between atoms: _223  and  _225
REMARK   86  A    between atoms: _225  and  _226
REMARK   87  A    between atoms: _225  and  _228
REMARK   88  A    between atoms: _228  and  _229
REMARK   89  A    between atoms: _231  and  _233
REMARK   90  A    between atoms: _233  and  _234
REMARK   91  A    between atoms: _233  and  _236
REMARK   92  A    between atoms: _239  and  _241
REMARK   93  A    between atoms: _241  and  _242
REMARK   94  A    between atoms: _241  and  _244
REMARK   95  A    between atoms: _244  and  _245
REMARK   96  A    between atoms: _250  and  _251
REMARK   97  A    between atoms: _253  and  _255
REMARK   98  A    between atoms: _255  and  _256
REMARK   99  A    between atoms: _255  and  _258
REMARK  100  A    between atoms: _261  and  _263
REMARK  101  A    between atoms: _263  and  _264
REMARK  102  A    between atoms: _263  and  _266
REMARK  103  A    between atoms: _269  and  _271
REMARK  104  A    between atoms: _271  and  _272
REMARK  105  A    between atoms: _271  and  _274
REMARK  106  A    between atoms: _274  and  _275
REMARK  107  A    between atoms: _275  and  _276
REMARK  108  A    between atoms: _279  and  _280
REMARK                            x       y       z     vdW  Elec       q    Type
REMARK                         _______ _______ _______ _____ _____    ______ ____
ROOT
ATOM      1  C   PHE A   2      18.169  -4.965  -7.455  0.00  0.00    +0.244 C 
ATOM      2  N   PRO A   3      16.884  -4.904  -7.830  0.00  0.00    -0.272 N 
ATOM      3  CD  PRO A   3      15.691  -5.323  -7.075  0.00  0.00    +0.094 C 
ATOM      4  CG  PRO A   3      14.590  -4.571  -7.752  0.00  0.00    +0.024 C 
ATOM      5  CB  PRO A   3      15.001  -4.502  -9.179  0.00  0.00    +0.031 C 
ATOM      6  CA  PRO A   3      16.531  -4.375  -9.148  0.00  0.00    +0.152 C 
ATOM      7  O   PHE A   2      19.078  -4.611  -8.193  0.00  0.00    -0.273 OA
ENDROOT
BRANCH   6   8
ATOM      8  C   PRO A   3      16.941  -2.923  -9.336  0.00  0.00    +0.241 C 
ATOM      9  O   PRO A   3      17.217  -2.218  -8.361  0.00  0.00    -0.273 OA
ATOM     10  N   ASP A   4      16.984  -2.501 -10.599  0.00  0.00    -0.297 N 
ATOM     11  H   ASP A   4      16.677  -3.155 -11.347  0.00  0.00    +0.150 HD
BRANCH  10  12
ATOM     12  CA  ASP A   4      17.438  -1.171 -10.989  0.00  0.00    +0.160 C 
BRANCH  12  13
ATOM     13  C   ASP A   4      16.189  -0.288 -11.101  0.00  0.00    +0.241 C 
ATOM     14  N   TYR A   5      16.080   0.707 -10.210  0.00  0.00    -0.298 N 
ATOM     15  H   TYR A   5      16.835   0.839  -9.507  0.00  0.00    +0.150 HD
ATOM     16  O   ASP A   4      15.334  -0.524 -11.958  0.00  0.00    -0.273 OA
BRANCH  14  17
ATOM     17  CA  TYR A   5      14.923   1.621 -10.195  0.00  0.00    +0.141 C 
BRANCH  17  18
ATOM     18  C   TYR A   5      14.767   2.328 -11.542  0.00  0.00    +0.227 C 
ATOM     19  O   TYR A   5      13.654   2.574 -11.971  0.00  0.00    -0.286 OA
ENDBRANCH  17  18
BRANCH  17  20
ATOM     20  CB  TYR A   5      14.996   2.647  -9.047  0.00  0.00    +0.054 C 
BRANCH  20  21
ATOM     21  CG  TYR A   5      15.922   3.813  -9.284  0.00  0.00    -0.020 A 
ATOM     22  CD2 TYR A   5      17.264   3.744  -8.934  0.00  0.00    -0.001 A 
ATOM     23  CE2 TYR A   5      18.111   4.799  -9.140  0.00  0.00    +0.036 A 
ATOM     24  CZ  TYR A   5      17.634   5.958  -9.715  0.00  0.00    +0.134 A 
ATOM     25  CE1 TYR A   5      16.307   6.064 -10.077  0.00  0.00    +0.036 A 
ATOM     26  CD1 TYR A   5      15.460   4.984  -9.866  0.00  0.00    -0.001 A 
BRANCH  24  27
ATOM     27  OH  TYR A   5      18.485   6.995  -9.935  0.00  0.00    -0.506 OA
ATOM     28  HH  TYR A   5      18.166   7.792  -9.443  0.00  0.00    +0.292 HD
ENDBRANCH  24  27
ENDBRANCH  20  21
ENDBRANCH  17  20
ENDBRANCH  14  17
ENDBRANCH  12  13
BRANCH  12  29
ATOM     29  CB  ASP A   4      18.230  -1.287 -12.313  0.00  0.00    +0.143 C 
BRANCH  29  30
ATOM     30  CG  ASP A   4      18.713   0.046 -12.870  0.00  0.00    +0.367 C 
ATOM     31  OD2 ASP A   4      18.441   1.130 -12.296  0.00  0.00    -0.246 OA
ATOM     32  OD1 ASP A   4      19.364  -0.003 -13.941  0.00  0.00    -0.246 OA
ENDBRANCH  29  30
ENDBRANCH  12  29
ENDBRANCH  10  12
ENDBRANCH   6   8
BRANCH   1  33
ATOM     33  CA  PHE A   2      18.483  -5.512  -6.064  0.00  0.00    +0.153 C 
BRANCH  33  35
ATOM     34  C   ARG A   1      19.680  -7.488  -6.761  0.00  0.00    +0.238 C 
ATOM     35  N   PHE A   2      19.678  -6.326  -6.136  0.00  0.00    -0.297 N 
ATOM     36  H   PHE A   2      20.553  -5.988  -5.686  0.00  0.00    +0.150 HD
ATOM     37  O   ARG A   1      18.674  -7.967  -7.273  0.00  0.00    -0.274 OA
BRANCH  34  38
ATOM     38  CA  ARG A   1      21.015  -8.209  -6.790  0.00  0.00    +0.145 C 
BRANCH  38  39
ATOM     39  N   ARG A   1      21.007  -9.230  -5.761  0.00  0.00    -0.238 NA
ATOM     40  H   ARG A   1      20.428 -10.080  -5.919  0.00  0.00    +0.142 HD
ENDBRANCH  38  39
BRANCH  38  41
ATOM     41  CB  ARG A   1      21.256  -8.865  -8.158  0.00  0.00    +0.030 C 
BRANCH  41  42
ATOM     42  CG  ARG A   1      22.721  -9.227  -8.421  0.00  0.00    +0.045 C 
BRANCH  42  43
ATOM     43  CD  ARG A   1      22.922 -10.569  -9.120  0.00  0.00    +0.174 C 
BRANCH  43  44
ATOM     44  NE  ARG A   1      21.869 -10.980 -10.055  0.00  0.00    -0.265 N 
ATOM     45  HE  ARG A   1      21.237 -11.750  -9.754  0.00  0.00    +0.259 HD
ATOM     46  CZ  ARG A   1      21.655 -10.447 -11.260  0.00  0.00    +0.342 C 
ATOM     47  NH2 ARG A   1      22.393  -9.429 -11.702  0.00  0.00    -0.292 N 
ATOM     48 HH21 ARG A   1      23.150  -9.038 -11.105  0.00  0.00    +0.255 HD
ATOM     49 HH22 ARG A   1      22.212  -9.026 -12.644  0.00  0.00    +0.255 HD
ATOM     50  NH1 ARG A   1      20.675 -10.922 -12.028  0.00  0.00    -0.292 N 
ATOM     51 HH11 ARG A   1      20.081 -11.705 -11.688  0.00  0.00    +0.255 HD
ATOM     52 HH12 ARG A   1      20.504 -10.510 -12.968  0.00  0.00    +0.255 HD
ENDBRANCH  43  44
ENDBRANCH  42  43
ENDBRANCH  41  42
ENDBRANCH  38  41
ENDBRANCH  34  38
ENDBRANCH  33  35
BRANCH  33  53
ATOM     53  CB  PHE A   2      18.722  -4.379  -5.082  0.00  0.00    +0.055 C 
BRANCH  53  54
ATOM     54  CG  PHE A   2      17.472  -3.805  -4.500  0.00  0.00    -0.020 A 
ATOM     55  CD2 PHE A   2      16.931  -4.334  -3.333  0.00  0.00    -0.004 A 
ATOM     56  CE2 PHE A   2      15.781  -3.793  -2.771  0.00  0.00    -0.000 A 
ATOM     57  CZ  PHE A   2      15.173  -2.703  -3.380  0.00  0.00    -0.000 A 
ATOM     58  CE1 PHE A   2      15.714  -2.166  -4.548  0.00  0.00    -0.000 A 
ATOM     59  CD1 PHE A   2      16.862  -2.714  -5.095  0.00  0.00    -0.004 A 
ENDBRANCH  53  54
ENDBRANCH  33  53
ENDBRANCH   1  33
TORSDOF 20
REMARK  Name = ../refined-set-2016/4n9a/4n9a_pocket.pdb
REMARK  108 active torsions:
REMARK  status: ('A' for Active; 'I' for Inactive)
REMARK    1  A    between atoms: _1  and  _3
REMARK    2  A    between atoms: _3  and  _4
REMARK    3  A    between atoms: _3  and  _6
REMARK    4  A    between atoms: _6  and  _7
REMARK    5  A    between atoms: _9  and  _11
REMARK    6  A    between atoms: _11  and  _12
REMARK    7  A    between atoms: _11  and  _14
REMARK    8  A    between atoms: _14  and  _15
REMARK    9  A    between atoms: _18  and  _20
REMARK   10  A    between atoms: _20  and  _21
REMARK   11  A    between atoms: _20  and  _23
REMARK   12  A    between atoms: _23  and  _24
REMARK   13  A    between atoms: _24  and  _25
REMARK   14  A    between atoms: _25  and  _26
REMARK   15  A    between atoms: _35  and  _37
REMARK   16  A    between atoms: _37  and  _38
REMARK   17  A    between atoms: _37  and  _40
REMARK   18  A    between atoms: _40  and  _41
REMARK   19  A    between atoms: _46  and  _47
REMARK   20  A    between atoms: _49  and  _51
REMARK   21  A    between atoms: _51  and  _52
REMARK   22  A    between atoms: _51  and  _54
REMARK   23  A    between atoms: _54  and  _55
REMARK   24  A    between atoms: _58  and  _60
REMARK   25  A    between atoms: _60  and  _61
REMARK   26  A    between atoms: _64  and  _66
REMARK   27  A    between atoms: _66  and  _67
REMARK   28  A    between atoms: _66  and  _69
REMARK   29  A    between atoms: _69  and  _70
REMARK   30  A    between atoms: _73  and  _75
REMARK   31  A    between atoms: _75  and  _76
REMARK   32  A    between atoms: _75  and  _78
REMARK   33  A    between atoms: _78  and  _79
REMARK   34  A    between atoms: _82  and  _84
REMARK   35  A    between atoms: _84  and  _85
REMARK   36  A    between atoms: _87  and  _89
REMARK   37  A    between atoms: _89  and  _90
REMARK   38  A    between atoms: _89  and  _92
REMARK   39  A    between atoms: _92  and  _93
REMARK   40  A    between atoms: _98  and  _100
REMARK   41  A    between atoms: _100  and  _101
REMARK   42  A    between atoms: _100  and  _103
REMARK   43  A    between atoms: _103  and  _104
REMARK   44  A    between atoms: _104  and  _105
REMARK   45  A    between atoms: _105  and  _106
REMARK   46  A    between atoms: _115  and  _117
REMARK   47  A    between atoms: _117  and  _118
REMARK   48  A    between atoms: _117  and  _120
REMARK   49  A    between atoms: _120  and  _121
REMARK   50  A    between atoms: _124  and  _126
REMARK   51  A    between atoms: _126  and  _127
REMARK   52  A    between atoms: _130  and  _132
REMARK   53  A    between atoms: _132  and  _133
REMARK   54  A    between atoms: _132  and  _135
REMARK   55  A    between atoms: _135  and  _136
REMARK   56  A    between atoms: _136  and  _137
REMARK   57  A    between atoms: _137  and  _138
REMARK   58  A    between atoms: _147  and  _149
REMARK   59  A    between atoms: _149  and  _150
REMARK   60  A    between atoms: _149  and  _152
REMARK   61  A    between atoms: _152  and  _153
REMARK   62  A    between atoms: _160  and  _161
REMARK   63  A    between atoms: _166  and  _168
REMARK   64  A    between atoms: _168  and  _169
REMARK   65  A    between atoms: _168  and  _171
REMARK   66  A    between atoms: _171  and  _172
REMARK   67  A    between atoms: _175  and  _177
REMARK   68  A    between atoms: _177  and  _178
REMARK   69  A    between atoms: _177  and  _180
REMARK   70  A    between atoms: _180  and  _181
REMARK   71  A    between atoms: _186  and  _187
REMARK   72  A    between atoms: _189  and  _191
REMARK   73  A    between atoms: _191  and  _192
REMARK   74  A    between atoms: _191  and  _194
REMARK   75  A    between atoms: _194  and  _195
REMARK   76  A    between atoms: _195  and  _196
REMARK   77  A    between atoms: _196  and  _197
REMARK   78  A    between atoms: _206  and  _208
REMARK   79  A    between atoms: _208  and  _209
REMARK   80  A    between atoms: _208  and  _211
REMARK   81  A    between atoms: _214  and  _216
REMARK   82  A    between atoms: _216  and  _217
REMARK   83  A    between atoms: _216  and  _219
REMARK   84  A    between atoms: _219  and  _220
REMARK   85  A    between atoms: _223  and  _225
REMARK   86  A    between atoms: _225  and  _226
REMARK   87  A    between atoms: _225  and  _228
REMARK   88  A    between atoms: _228  and  _229
REMARK   89  A    between atoms: _231  and  _233
REMARK   90  A    between atoms: _233  and  _234
REMARK   91  A    between atoms: _233  and  _236
REMARK   92  A    between atoms: _239  and  _241
REMARK   93  A    between atoms: _241  and  _242
REMARK   94  A    between atoms: _241  and  _244
REMARK   95  A    between atoms: _244  and  _245
REMARK   96  A    between atoms: _250  and  _251
REMARK   97  A    between atoms: _253  and  _255
REMARK   98  A    between atoms: _255  and  _256
REMARK   99  A    between atoms: _255  and  _258
REMARK  100  A    between atoms: _261  and  _263
REMARK  101  A    between atoms: _263  and  _264
REMARK  102  A    between atoms: _263  and  _266
REMARK  103  A    between atoms: _269  and  _271
REMARK  104  A    between atoms: _271  and  _272
REMARK  105  A    between atoms: _271  and  _274
REMARK  106  A    between atoms: _274  and  _275
REMARK  107  A    between atoms: _275  and  _276
REMARK  108  A    between atoms: _279  and  _280
REMARK                            x       y       z     vdW  Elec       q    Type
REMARK                         _______ _______ _______ _____ _____    ______ ____
ROOT
ATOM      1  C   ARG A   1      12.910   0.160 -15.100  0.00  0.00    +0.238 C 
ATOM      2  N   VAL A   2      12.568   0.495 -13.864  0.00  0.00    -0.297 N 
ATOM      3  H   VAL A   2      13.304   0.812 -13.201  0.00  0.00    +0.150 HD
ATOM      4  O   ARG A   1      12.095  -0.250 -15.935  0.00  0.00    -0.274 OA
ENDROOT
BRANCH   1   5
ATOM      5  CA  ARG A   1      14.384   0.300 -15.441  0.00  0.00    +0.145 C 
BRANCH   5   6
ATOM      6  N   ARG A   1      15.099   1.130 -14.459  0.00  0.00    -0.238 NA
ATOM      7  H   ARG A   1      15.578   0.673 -13.657  0.00  0.00    +0.142 HD
ENDBRANCH   5   6
BRANCH   5   8
ATOM      8  CB  ARG A   1      15.015  -1.093 -15.558  0.00  0.00    +0.030 C 
BRANCH   8   9
ATOM      9  CG  ARG A   1      16.538  -1.094 -15.617  0.00  0.00    +0.045 C 
BRANCH   9  10
ATOM     10  CD  ARG A   1      17.135  -0.333 -16.795  0.00  0.00    +0.174 C 
BRANCH  10  11
ATOM     11  NE  ARG A   1      16.889  -1.011 -18.065  0.00  0.00    -0.265 N 
ATOM     12  HE  ARG A   1      16.373  -1.913 -18.034  0.00  0.00    +0.259 HD
ATOM     13  CZ  ARG A   1      17.275  -0.563 -19.266  0.00  0.00    +0.342 C 
ATOM     14  NH2 ARG A   1      17.960   0.572 -19.401  0.00  0.00    -0.292 N 
ATOM     15 HH21 ARG A   1      18.207   1.133 -18.561  0.00  0.00    +0.255 HD
ATOM     16 HH22 ARG A   1      18.247   0.897 -20.346  0.00  0.00    +0.255 HD
ATOM     17  NH1 ARG A   1      16.970  -1.266 -20.342  0.00  0.00    -0.292 N 
ATOM     18 HH11 ARG A   1      16.437  -2.154 -20.249  0.00  0.00    +0.255 HD
ATOM     19 HH12 ARG A   1      17.263  -0.931 -21.282  0.00  0.00    +0.255 HD
ENDBRANCH  10  11
ENDBRANCH   9  10
ENDBRANCH   8   9
ENDBRANCH   5   8
ENDBRANCH   1   5
BRANCH   2  20
ATOM     20  CA  VAL A   2      11.198   0.429 -13.419  0.00  0.00    +0.148 C 
BRANCH  20  21
ATOM     21  C   VAL A   2      10.493   1.749 -13.710  0.00  0.00    +0.241 C 
ATOM     22  N   LEU A   3      11.195   2.868 -13.576  0.00  0.00    -0.298 N 
ATOM     23  H   LEU A   3      12.167   2.831 -13.208  0.00  0.00    +0.150 HD
ATOM     24  O   VAL A   2       9.322   1.753 -14.055  0.00  0.00    -0.273 OA
BRANCH  22  25
ATOM     25  CA  LEU A   3      10.606   4.146 -13.943  0.00  0.00    +0.137 C 
BRANCH  25  26
ATOM     26  C   LEU A   3      10.160   4.083 -15.405  0.00  0.00    +0.227 C 
ATOM     27  O   LEU A   3      10.940   3.698 -16.266  0.00  0.00    -0.286 OA
ENDBRANCH  25  26
BRANCH  25  28
ATOM     28  CB  LEU A   3      11.592   5.298 -13.778  0.00  0.00    +0.028 C 
BRANCH  28  29
ATOM     29  CG  LEU A   3      12.006   5.690 -12.360  0.00  0.00    +0.002 C 
ATOM     30  CD2 LEU A   3      10.806   5.917 -11.458  0.00  0.00    +0.000 C 
ATOM     31  CD1 LEU A   3      12.871   6.930 -12.417  0.00  0.00    +0.000 C 
ENDBRANCH  28  29
ENDBRANCH  25  28
ENDBRANCH  22  25
ENDBRANCH  20  21
BRANCH  20  32
ATOM     32  CB  VAL A   2      11.123   0.084 -11.918  0.00  0.00    +0.027 C 
ATOM     33  CG2 VAL A   2       9.692   0.205 -11.411  0.00  0.00    +0.002 C 
ATOM     34  CG1 VAL A   2      11.675  -1.322 -11.668  0.00  0.00    +0.002 C 
ENDBRANCH  20  32
ENDBRANCH   2  20
TORSDOF 13
REMARK  Name = ../refined-set-2016/4n9a/4n9a_pocket.pdb
REMARK  108 active torsions:
REMARK  status: ('A' for Active; 'I' for Inactive)
REMARK    1  A    between atoms: _1  and  _3
REMARK    2  A    between atoms: _3  and  _4
REMARK    3  A    between atoms: _3  and  _6
REMARK    4  A    between atoms: _6  and  _7
REMARK    5  A    between atoms: _9  and  _11
REMARK    6  A    between atoms: _11  and  _12
REMARK    7  A    between atoms: _11  and  _14
REMARK    8  A    between atoms: _14  and  _15
REMARK    9  A    between atoms: _18  and  _20
REMARK   10  A    between atoms: _20  and  _21
REMARK   11  A    between atoms: _20  and  _23
REMARK   12  A    between atoms: _23  and  _24
REMARK   13  A    between atoms: _24  and  _25
REMARK   14  A    between atoms: _25  and  _26
REMARK   15  A    between atoms: _35  and  _37
REMARK   16  A    between atoms: _37  and  _38
REMARK   17  A    between atoms: _37  and  _40
REMARK   18  A    between atoms: _40  and  _41
REMARK   19  A    between atoms: _46  and  _47
REMARK   20  A    between atoms: _49  and  _51
REMARK   21  A    between atoms: _51  and  _52
REMARK   22  A    between atoms: _51  and  _54
REMARK   23  A    between atoms: _54  and  _55
REMARK   24  A    between atoms: _58  and  _60
REMARK   25  A    between atoms: _60  and  _61
REMARK   26  A    between atoms: _64  and  _66
REMARK   27  A    between atoms: _66  and  _67
REMARK   28  A    between atoms: _66  and  _69
REMARK   29  A    between atoms: _69  and  _70
REMARK   30  A    between atoms: _73  and  _75
REMARK   31  A    between atoms: _75  and  _76
REMARK   32  A    between atoms: _75  and  _78
REMARK   33  A    between atoms: _78  and  _79
REMARK   34  A    between atoms: _82  and  _84
REMARK   35  A    between atoms: _84  and  _85
REMARK   36  A    between atoms: _87  and  _89
REMARK   37  A    between atoms: _89  and  _90
REMARK   38  A    between atoms: _89  and  _92
REMARK   39  A    between atoms: _92  and  _93
REMARK   40  A    between atoms: _98  and  _100
REMARK   41  A    between atoms: _100  and  _101
REMARK   42  A    between atoms: _100  and  _103
REMARK   43  A    between atoms: _103  and  _104
REMARK   44  A    between atoms: _104  and  _105
REMARK   45  A    between atoms: _105  and  _106
REMARK   46  A    between atoms: _115  and  _117
REMARK   47  A    between atoms: _117  and  _118
REMARK   48  A    between atoms: _117  and  _120
REMARK   49  A    between atoms: _120  and  _121
REMARK   50  A    between atoms: _124  and  _126
REMARK   51  A    between atoms: _126  and  _127
REMARK   52  A    between atoms: _130  and  _132
REMARK   53  A    between atoms: _132  and  _133
REMARK   54  A    between atoms: _132  and  _135
REMARK   55  A    between atoms: _135  and  _136
REMARK   56  A    between atoms: _136  and  _137
REMARK   57  A    between atoms: _137  and  _138
REMARK   58  A    between atoms: _147  and  _149
REMARK   59  A    between atoms: _149  and  _150
REMARK   60  A    between atoms: _149  and  _152
REMARK   61  A    between atoms: _152  and  _153
REMARK   62  A    between atoms: _160  and  _161
REMARK   63  A    between atoms: _166  and  _168
REMARK   64  A    between atoms: _168  and  _169
REMARK   65  A    between atoms: _168  and  _171
REMARK   66  A    between atoms: _171  and  _172
REMARK   67  A    between atoms: _175  and  _177
REMARK   68  A    between atoms: _177  and  _178
REMARK   69  A    between atoms: _177  and  _180
REMARK   70  A    between atoms: _180  and  _181
REMARK   71  A    between atoms: _186  and  _187
REMARK   72  A    between atoms: _189  and  _191
REMARK   73  A    between atoms: _191  and  _192
REMARK   74  A    between atoms: _191  and  _194
REMARK   75  A    between atoms: _194  and  _195
REMARK   76  A    between atoms: _195  and  _196
REMARK   77  A    between atoms: _196  and  _197
REMARK   78  A    between atoms: _206  and  _208
REMARK   79  A    between atoms: _208  and  _209
REMARK   80  A    between atoms: _208  and  _211
REMARK   81  A    between atoms: _214  and  _216
REMARK   82  A    between atoms: _216  and  _217
REMARK   83  A    between atoms: _216  and  _219
REMARK   84  A    between atoms: _219  and  _220
REMARK   85  A    between atoms: _223  and  _225
REMARK   86  A    between atoms: _225  and  _226
REMARK   87  A    between atoms: _225  and  _228
REMARK   88  A    between atoms: _228  and  _229
REMARK   89  A    between atoms: _231  and  _233
REMARK   90  A    between atoms: _233  and  _234
REMARK   91  A    between atoms: _233  and  _236
REMARK   92  A    between atoms: _239  and  _241
REMARK   93  A    between atoms: _241  and  _242
REMARK   94  A    between atoms: _241  and  _244
REMARK   95  A    between atoms: _244  and  _245
REMARK   96  A    between atoms: _250  and  _251
REMARK   97  A    between atoms: _253  and  _255
REMARK   98  A    between atoms: _255  and  _256
REMARK   99  A    between atoms: _255  and  _258
REMARK  100  A    between atoms: _261  and  _263
REMARK  101  A    between atoms: _263  and  _264
REMARK  102  A    between atoms: _263  and  _266
REMARK  103  A    between atoms: _269  and  _271
REMARK  104  A    between atoms: _271  and  _272
REMARK  105  A    between atoms: _271  and  _274
REMARK  106  A    between atoms: _274  and  _275
REMARK  107  A    between atoms: _275  and  _276
REMARK  108  A    between atoms: _279  and  _280
REMARK                            x       y       z     vdW  Elec       q    Type
REMARK                         _______ _______ _______ _____ _____    ______ ____
ROOT
ATOM      1  C   SER A   1       2.544   2.957 -14.846  0.00  0.00    +0.241 C 
ATOM      2  N   VAL A   2       2.178   3.430 -13.650  0.00  0.00    -0.298 N 
ATOM      3  H   VAL A   2       1.994   2.746 -12.888  0.00  0.00    +0.150 HD
ATOM      4  O   SER A   1       2.614   3.629 -15.854  0.00  0.00    -0.274 OA
ENDROOT
BRANCH   1   5
ATOM      5  CA  SER A   1       2.859   1.473 -14.887  0.00  0.00    +0.174 C 
BRANCH   5   6
ATOM      6  N   SER A   1       2.898   0.945 -16.253  0.00  0.00    -0.236 NA
ATOM      7  H   SER A   1       3.807   0.651 -16.663  0.00  0.00    +0.142 HD
ENDBRANCH   5   6
BRANCH   5   8
ATOM      8  CB  SER A   1       4.188   1.230 -14.172  0.00  0.00    +0.163 C 
BRANCH   8   9
ATOM      9  OG  SER A   1       4.400  -0.150 -13.994  0.00  0.00    -0.380 OA
ATOM     10  H   SER A   1       5.263  -0.293 -13.530  0.00  0.00    +0.211 HD
ENDBRANCH   8   9
ENDBRANCH   5   8
ENDBRANCH   1   5
BRANCH   2  11
ATOM     11  CA  VAL A   2       2.021   4.855 -13.351  0.00  0.00    +0.137 C 
BRANCH  11  12
ATOM     12  CB  VAL A   2       0.619   5.203 -12.748  0.00  0.00    +0.026 C 
ATOM     13  CG2 VAL A   2       0.372   4.507 -11.418  0.00  0.00    +0.002 C 
ATOM     14  CG1 VAL A   2       0.455   6.704 -12.565  0.00  0.00    +0.002 C 
ENDBRANCH  11  12
BRANCH  11  15
ATOM     15  C   VAL A   2       3.138   5.267 -12.390  0.00  0.00    +0.227 C 
ATOM     16  O   VAL A   2       3.577   4.478 -11.527  0.00  0.00    -0.286 OA
ENDBRANCH  11  15
ENDBRANCH   2  11
TORSDOF 7
REMARK  Name = ../refined-set-2016/4n9a/4n9a_pocket.pdb
REMARK  108 active torsions:
REMARK  status: ('A' for Active; 'I' for Inactive)
REMARK    1  A    between atoms: _1  and  _3
REMARK    2  A    between atoms: _3  and  _4
REMARK    3  A    between atoms: _3  and  _6
REMARK    4  A    between atoms: _6  and  _7
REMARK    5  A    between atoms: _9  and  _11
REMARK    6  A    between atoms: _11  and  _12
REMARK    7  A    between atoms: _11  and  _14
REMARK    8  A    between atoms: _14  and  _15
REMARK    9  A    between atoms: _18  and  _20
REMARK   10  A    between atoms: _20  and  _21
REMARK   11  A    between atoms: _20  and  _23
REMARK   12  A    between atoms: _23  and  _24
REMARK   13  A    between atoms: _24  and  _25
REMARK   14  A    between atoms: _25  and  _26
REMARK   15  A    between atoms: _35  and  _37
REMARK   16  A    between atoms: _37  and  _38
REMARK   17  A    between atoms: _37  and  _40
REMARK   18  A    between atoms: _40  and  _41
REMARK   19  A    between atoms: _46  and  _47
REMARK   20  A    between atoms: _49  and  _51
REMARK   21  A    between atoms: _51  and  _52
REMARK   22  A    between atoms: _51  and  _54
REMARK   23  A    between atoms: _54  and  _55
REMARK   24  A    between atoms: _58  and  _60
REMARK   25  A    between atoms: _60  and  _61
REMARK   26  A    between atoms: _64  and  _66
REMARK   27  A    between atoms: _66  and  _67
REMARK   28  A    between atoms: _66  and  _69
REMARK   29  A    between atoms: _69  and  _70
REMARK   30  A    between atoms: _73  and  _75
REMARK   31  A    between atoms: _75  and  _76
REMARK   32  A    between atoms: _75  and  _78
REMARK   33  A    between atoms: _78  and  _79
REMARK   34  A    between atoms: _82  and  _84
REMARK   35  A    between atoms: _84  and  _85
REMARK   36  A    between atoms: _87  and  _89
REMARK   37  A    between atoms: _89  and  _90
REMARK   38  A    between atoms: _89  and  _92
REMARK   39  A    between atoms: _92  and  _93
REMARK   40  A    between atoms: _98  and  _100
REMARK   41  A    between atoms: _100  and  _101
REMARK   42  A    between atoms: _100  and  _103
REMARK   43  A    between atoms: _103  and  _104
REMARK   44  A    between atoms: _104  and  _105
REMARK   45  A    between atoms: _105  and  _106
REMARK   46  A    between atoms: _115  and  _117
REMARK   47  A    between atoms: _117  and  _118
REMARK   48  A    between atoms: _117  and  _120
REMARK   49  A    between atoms: _120  and  _121
REMARK   50  A    between atoms: _124  and  _126
REMARK   51  A    between atoms: _126  and  _127
REMARK   52  A    between atoms: _130  and  _132
REMARK   53  A    between atoms: _132  and  _133
REMARK   54  A    between atoms: _132  and  _135
REMARK   55  A    between atoms: _135  and  _136
REMARK   56  A    between atoms: _136  and  _137
REMARK   57  A    between atoms: _137  and  _138
REMARK   58  A    between atoms: _147  and  _149
REMARK   59  A    between atoms: _149  and  _150
REMARK   60  A    between atoms: _149  and  _152
REMARK   61  A    between atoms: _152  and  _153
REMARK   62  A    between atoms: _160  and  _161
REMARK   63  A    between atoms: _166  and  _168
REMARK   64  A    between atoms: _168  and  _169
REMARK   65  A    between atoms: _168  and  _171
REMARK   66  A    between atoms: _171  and  _172
REMARK   67  A    between atoms: _175  and  _177
REMARK   68  A    between atoms: _177  and  _178
REMARK   69  A    between atoms: _177  and  _180
REMARK   70  A    between atoms: _180  and  _181
REMARK   71  A    between atoms: _186  and  _187
REMARK   72  A    between atoms: _189  and  _191
REMARK   73  A    between atoms: _191  and  _192
REMARK   74  A    between atoms: _191  and  _194
REMARK   75  A    between atoms: _194  and  _195
REMARK   76  A    between atoms: _195  and  _196
REMARK   77  A    between atoms: _196  and  _197
REMARK   78  A    between atoms: _206  and  _208
REMARK   79  A    between atoms: _208  and  _209
REMARK   80  A    between atoms: _208  and  _211
REMARK   81  A    between atoms: _214  and  _216
REMARK   82  A    between atoms: _216  and  _217
REMARK   83  A    between atoms: _216  and  _219
REMARK   84  A    between atoms: _219  and  _220
REMARK   85  A    between atoms: _223  and  _225
REMARK   86  A    between atoms: _225  and  _226
REMARK   87  A    between atoms: _225  and  _228
REMARK   88  A    between atoms: _228  and  _229
REMARK   89  A    between atoms: _231  and  _233
REMARK   90  A    between atoms: _233  and  _234
REMARK   91  A    between atoms: _233  and  _236
REMARK   92  A    between atoms: _239  and  _241
REMARK   93  A    between atoms: _241  and  _242
REMARK   94  A    between atoms: _241  and  _244
REMARK   95  A    between atoms: _244  and  _245
REMARK   96  A    between atoms: _250  and  _251
REMARK   97  A    between atoms: _253  and  _255
REMARK   98  A    between atoms: _255  and  _256
REMARK   99  A    between atoms: _255  and  _258
REMARK  100  A    between atoms: _261  and  _263
REMARK  101  A    between atoms: _263  and  _264
REMARK  102  A    between atoms: _263  and  _266
REMARK  103  A    between atoms: _269  and  _271
REMARK  104  A    between atoms: _271  and  _272
REMARK  105  A    between atoms: _271  and  _274
REMARK  106  A    between atoms: _274  and  _275
REMARK  107  A    between atoms: _275  and  _276
REMARK  108  A    between atoms: _279  and  _280
REMARK                            x       y       z     vdW  Elec       q    Type
REMARK                         _______ _______ _______ _____ _____    ______ ____
ROOT
ATOM      1  C   VAL A   2       4.899   2.186  -9.073  0.00  0.00    +0.241 C 
ATOM      2  O   VAL A   2       5.211   1.380  -8.187  0.00  0.00    -0.273 OA
ATOM      3  N   VAL A   3       3.716   2.161  -9.683  0.00  0.00    -0.297 N 
ATOM      4  H   VAL A   3       3.495   2.909 -10.371  0.00  0.00    +0.150 HD
ENDROOT
BRANCH   1   5
ATOM      5  CA  VAL A   2       5.840   3.335  -9.467  0.00  0.00    +0.148 C 
BRANCH   5   7
ATOM      6  C   TYR A   1       6.156   5.336  -8.136  0.00  0.00    +0.239 C 
ATOM      7  N   VAL A   2       6.296   4.022  -8.266  0.00  0.00    -0.297 N 
ATOM      8  H   VAL A   2       6.738   3.475  -7.499  0.00  0.00    +0.150 HD
ATOM      9  O   TYR A   1       5.639   6.040  -9.011  0.00  0.00    -0.274 OA
BRANCH   6  10
ATOM     10  CA  TYR A   1       6.647   5.958  -6.845  0.00  0.00    +0.149 C 
BRANCH  10  11
ATOM     11  N   TYR A   1       7.346   7.205  -7.148  0.00  0.00    -0.238 NA
ATOM     12  H   TYR A   1       6.845   7.915  -7.720  0.00  0.00    +0.142 HD
ENDBRANCH  10  11
BRANCH  10  13
ATOM     13  CB  TYR A   1       5.485   6.241  -5.907  0.00  0.00    +0.053 C 
BRANCH  13  14
ATOM     14  CG  TYR A   1       5.997   6.862  -4.633  0.00  0.00    -0.020 A 
ATOM     15  CD2 TYR A   1       6.497   6.077  -3.629  0.00  0.00    -0.001 A 
ATOM     16  CE2 TYR A   1       7.006   6.625  -2.471  0.00  0.00    +0.036 A 
ATOM     17  CZ  TYR A   1       7.069   7.989  -2.340  0.00  0.00    +0.134 A 
ATOM     18  CE1 TYR A   1       6.614   8.804  -3.357  0.00  0.00    +0.036 A 
ATOM     19  CD1 TYR A   1       6.084   8.235  -4.495  0.00  0.00    -0.001 A 
BRANCH  17  20
ATOM     20  OH  TYR A   1       7.616   8.543  -1.198  0.00  0.00    -0.506 OA
ATOM     21  HH  TYR A   1       7.887   7.820  -0.579  0.00  0.00    +0.292 HD
ENDBRANCH  17  20
ENDBRANCH  13  14
ENDBRANCH  10  13
ENDBRANCH   6  10
ENDBRANCH   5   7
BRANCH   5  22
ATOM     22  CB  VAL A   2       7.028   2.827 -10.325  0.00  0.00    +0.027 C 
ATOM     23  CG2 VAL A   2       7.962   3.966 -10.675  0.00  0.00    +0.002 C 
ATOM     24  CG1 VAL A   2       6.528   2.169 -11.614  0.00  0.00    +0.002 C 
ENDBRANCH   5  22
ENDBRANCH   1   5
BRANCH   3  25
ATOM     25  CA  VAL A   3       2.717   1.131  -9.429  0.00  0.00    +0.149 C 
BRANCH  25  26
ATOM     26  C   VAL A   3       2.362   0.421 -10.737  0.00  0.00    +0.241 C 
ATOM     27  N   MET A   4       2.443  -0.903 -10.742  0.00  0.00    -0.297 N 
ATOM     28  H   MET A   4       2.764  -1.399  -9.886  0.00  0.00    +0.150 HD
ATOM     29  O   VAL A   3       2.035   1.064 -11.725  0.00  0.00    -0.273 OA
BRANCH  27  30
ATOM     30  CA  MET A   4       2.091  -1.672 -11.924  0.00  0.00    +0.150 C 
BRANCH  30  31
ATOM     31  C   MET A   4       0.569  -1.706 -12.114  0.00  0.00    +0.244 C 
ATOM     32  O   MET A   4      -0.192  -1.738 -11.146  0.00  0.00    -0.273 OA
ATOM     33  N   PRO A   5       0.120  -1.716 -13.369  0.00  0.00    -0.273 N 
ATOM     34  CA  PRO A   5      -1.305  -1.748 -13.618  0.00  0.00    +0.140 C 
ATOM     35  CB  PRO A   5      -1.394  -1.301 -15.071  0.00  0.00    +0.030 C 
ATOM     36  CG  PRO A   5      -0.146  -1.844 -15.701  0.00  0.00    +0.024 C 
ATOM     37  CD  PRO A   5       0.895  -1.915 -14.615  0.00  0.00    +0.094 C 
BRANCH  34  38
ATOM     38  C   PRO A   5      -1.861  -3.152 -13.419  0.00  0.00    +0.227 C 
ATOM     39  O   PRO A   5      -1.090  -4.099 -13.314  0.00  0.00    -0.286 OA
ENDBRANCH  34  38
ENDBRANCH  30  31
BRANCH  30  40
ATOM     40  CB  MET A   4       2.645  -3.115 -11.848  0.00  0.00    +0.041 C 
BRANCH  40  41
ATOM     41  CG  MET A   4       4.160  -3.262 -11.971  0.00  0.00    +0.060 C 
BRANCH  41  42
ATOM     42  SD  MET A   4       4.903  -2.729 -13.542  0.00  0.00    -0.139 S 
ATOM     43  CE  MET A   4       4.245  -3.901 -14.734  0.00  0.00    +0.069 C 
ENDBRANCH  41  42
ENDBRANCH  40  41
ENDBRANCH  30  40
ENDBRANCH  27  30
ENDBRANCH  25  26
BRANCH  25  44
ATOM     44  CB  VAL A   3       1.462   1.743  -8.808  0.00  0.00    +0.027 C 
ATOM     45  CG2 VAL A   3       1.847   2.602  -7.584  0.00  0.00    +0.002 C 
ATOM     46  CG1 VAL A   3       0.462   0.661  -8.433  0.00  0.00    +0.002 C 
ENDBRANCH  25  44
ENDBRANCH   3  25
TORSDOF 17
REMARK  Name = ../refined-set-2016/4n9a/4n9a_pocket.pdb
REMARK  108 active torsions:
REMARK  status: ('A' for Active; 'I' for Inactive)
REMARK    1  A    between atoms: _1  and  _3
REMARK    2  A    between atoms: _3  and  _4
REMARK    3  A    between atoms: _3  and  _6
REMARK    4  A    between atoms: _6  and  _7
REMARK    5  A    between atoms: _9  and  _11
REMARK    6  A    between atoms: _11  and  _12
REMARK    7  A    between atoms: _11  and  _14
REMARK    8  A    between atoms: _14  and  _15
REMARK    9  A    between atoms: _18  and  _20
REMARK   10  A    between atoms: _20  and  _21
REMARK   11  A    between atoms: _20  and  _23
REMARK   12  A    between atoms: _23  and  _24
REMARK   13  A    between atoms: _24  and  _25
REMARK   14  A    between atoms: _25  and  _26
REMARK   15  A    between atoms: _35  and  _37
REMARK   16  A    between atoms: _37  and  _38
REMARK   17  A    between atoms: _37  and  _40
REMARK   18  A    between atoms: _40  and  _41
REMARK   19  A    between atoms: _46  and  _47
REMARK   20  A    between atoms: _49  and  _51
REMARK   21  A    between atoms: _51  and  _52
REMARK   22  A    between atoms: _51  and  _54
REMARK   23  A    between atoms: _54  and  _55
REMARK   24  A    between atoms: _58  and  _60
REMARK   25  A    between atoms: _60  and  _61
REMARK   26  A    between atoms: _64  and  _66
REMARK   27  A    between atoms: _66  and  _67
REMARK   28  A    between atoms: _66  and  _69
REMARK   29  A    between atoms: _69  and  _70
REMARK   30  A    between atoms: _73  and  _75
REMARK   31  A    between atoms: _75  and  _76
REMARK   32  A    between atoms: _75  and  _78
REMARK   33  A    between atoms: _78  and  _79
REMARK   34  A    between atoms: _82  and  _84
REMARK   35  A    between atoms: _84  and  _85
REMARK   36  A    between atoms: _87  and  _89
REMARK   37  A    between atoms: _89  and  _90
REMARK   38  A    between atoms: _89  and  _92
REMARK   39  A    between atoms: _92  and  _93
REMARK   40  A    between atoms: _98  and  _100
REMARK   41  A    between atoms: _100  and  _101
REMARK   42  A    between atoms: _100  and  _103
REMARK   43  A    between atoms: _103  and  _104
REMARK   44  A    between atoms: _104  and  _105
REMARK   45  A    between atoms: _105  and  _106
REMARK   46  A    between atoms: _115  and  _117
REMARK   47  A    between atoms: _117  and  _118
REMARK   48  A    between atoms: _117  and  _120
REMARK   49  A    between atoms: _120  and  _121
REMARK   50  A    between atoms: _124  and  _126
REMARK   51  A    between atoms: _126  and  _127
REMARK   52  A    between atoms: _130  and  _132
REMARK   53  A    between atoms: _132  and  _133
REMARK   54  A    between atoms: _132  and  _135
REMARK   55  A    between atoms: _135  and  _136
REMARK   56  A    between atoms: _136  and  _137
REMARK   57  A    between atoms: _137  and  _138
REMARK   58  A    between atoms: _147  and  _149
REMARK   59  A    between atoms: _149  and  _150
REMARK   60  A    between atoms: _149  and  _152
REMARK   61  A    between atoms: _152  and  _153
REMARK   62  A    between atoms: _160  and  _161
REMARK   63  A    between atoms: _166  and  _168
REMARK   64  A    between atoms: _168  and  _169
REMARK   65  A    between atoms: _168  and  _171
REMARK   66  A    between atoms: _171  and  _172
REMARK   67  A    between atoms: _175  and  _177
REMARK   68  A    between atoms: _177  and  _178
REMARK   69  A    between atoms: _177  and  _180
REMARK   70  A    between atoms: _180  and  _181
REMARK   71  A    between atoms: _186  and  _187
REMARK   72  A    between atoms: _189  and  _191
REMARK   73  A    between atoms: _191  and  _192
REMARK   74  A    between atoms: _191  and  _194
REMARK   75  A    between atoms: _194  and  _195
REMARK   76  A    between atoms: _195  and  _196
REMARK   77  A    between atoms: _196  and  _197
REMARK   78  A    between atoms: _206  and  _208
REMARK   79  A    between atoms: _208  and  _209
REMARK   80  A    between atoms: _208  and  _211
REMARK   81  A    between atoms: _214  and  _216
REMARK   82  A    between atoms: _216  and  _217
REMARK   83  A    between atoms: _216  and  _219
REMARK   84  A    between atoms: _219  and  _220
REMARK   85  A    between atoms: _223  and  _225
REMARK   86  A    between atoms: _225  and  _226
REMARK   87  A    between atoms: _225  and  _228
REMARK   88  A    between atoms: _228  and  _229
REMARK   89  A    between atoms: _231  and  _233
REMARK   90  A    between atoms: _233  and  _234
REMARK   91  A    between atoms: _233  and  _236
REMARK   92  A    between atoms: _239  and  _241
REMARK   93  A    between atoms: _241  and  _242
REMARK   94  A    between atoms: _241  and  _244
REMARK   95  A    between atoms: _244  and  _245
REMARK   96  A    between atoms: _250  and  _251
REMARK   97  A    between atoms: _253  and  _255
REMARK   98  A    between atoms: _255  and  _256
REMARK   99  A    between atoms: _255  and  _258
REMARK  100  A    between atoms: _261  and  _263
REMARK  101  A    between atoms: _263  and  _264
REMARK  102  A    between atoms: _263  and  _266
REMARK  103  A    between atoms: _269  and  _271
REMARK  104  A    between atoms: _271  and  _272
REMARK  105  A    between atoms: _271  and  _274
REMARK  106  A    between atoms: _274  and  _275
REMARK  107  A    between atoms: _275  and  _276
REMARK  108  A    between atoms: _279  and  _280
REMARK                            x       y       z     vdW  Elec       q    Type
REMARK                         _______ _______ _______ _____ _____    ______ ____
ROOT
ATOM      1  O   HOH     1       5.259   2.581  -4.022  0.00  0.00    +0.000 OA
ENDROOT
TORSDOF 0
REMARK  Name = ../refined-set-2016/4n9a/4n9a_pocket.pdb
REMARK  108 active torsions:
REMARK  status: ('A' for Active; 'I' for Inactive)
REMARK    1  A    between atoms: _1  and  _3
REMARK    2  A    between atoms: _3  and  _4
REMARK    3  A    between atoms: _3  and  _6
REMARK    4  A    between atoms: _6  and  _7
REMARK    5  A    between atoms: _9  and  _11
REMARK    6  A    between atoms: _11  and  _12
REMARK    7  A    between atoms: _11  and  _14
REMARK    8  A    between atoms: _14  and  _15
REMARK    9  A    between atoms: _18  and  _20
REMARK   10  A    between atoms: _20  and  _21
REMARK   11  A    between atoms: _20  and  _23
REMARK   12  A    between atoms: _23  and  _24
REMARK   13  A    between atoms: _24  and  _25
REMARK   14  A    between atoms: _25  and  _26
REMARK   15  A    between atoms: _35  and  _37
REMARK   16  A    between atoms: _37  and  _38
REMARK   17  A    between atoms: _37  and  _40
REMARK   18  A    between atoms: _40  and  _41
REMARK   19  A    between atoms: _46  and  _47
REMARK   20  A    between atoms: _49  and  _51
REMARK   21  A    between atoms: _51  and  _52
REMARK   22  A    between atoms: _51  and  _54
REMARK   23  A    between atoms: _54  and  _55
REMARK   24  A    between atoms: _58  and  _60
REMARK   25  A    between atoms: _60  and  _61
REMARK   26  A    between atoms: _64  and  _66
REMARK   27  A    between atoms: _66  and  _67
REMARK   28  A    between atoms: _66  and  _69
REMARK   29  A    between atoms: _69  and  _70
REMARK   30  A    between atoms: _73  and  _75
REMARK   31  A    between atoms: _75  and  _76
REMARK   32  A    between atoms: _75  and  _78
REMARK   33  A    between atoms: _78  and  _79
REMARK   34  A    between atoms: _82  and  _84
REMARK   35  A    between atoms: _84  and  _85
REMARK   36  A    between atoms: _87  and  _89
REMARK   37  A    between atoms: _89  and  _90
REMARK   38  A    between atoms: _89  and  _92
REMARK   39  A    between atoms: _92  and  _93
REMARK   40  A    between atoms: _98  and  _100
REMARK   41  A    between atoms: _100  and  _101
REMARK   42  A    between atoms: _100  and  _103
REMARK   43  A    between atoms: _103  and  _104
REMARK   44  A    between atoms: _104  and  _105
REMARK   45  A    between atoms: _105  and  _106
REMARK   46  A    between atoms: _115  and  _117
REMARK   47  A    between atoms: _117  and  _118
REMARK   48  A    between atoms: _117  and  _120
REMARK   49  A    between atoms: _120  and  _121
REMARK   50  A    between atoms: _124  and  _126
REMARK   51  A    between atoms: _126  and  _127
REMARK   52  A    between atoms: _130  and  _132
REMARK   53  A    between atoms: _132  and  _133
REMARK   54  A    between atoms: _132  and  _135
REMARK   55  A    between atoms: _135  and  _136
REMARK   56  A    between atoms: _136  and  _137
REMARK   57  A    between atoms: _137  and  _138
REMARK   58  A    between atoms: _147  and  _149
REMARK   59  A    between atoms: _149  and  _150
REMARK   60  A    between atoms: _149  and  _152
REMARK   61  A    between atoms: _152  and  _153
REMARK   62  A    between atoms: _160  and  _161
REMARK   63  A    between atoms: _166  and  _168
REMARK   64  A    between atoms: _168  and  _169
REMARK   65  A    between atoms: _168  and  _171
REMARK   66  A    between atoms: _171  and  _172
REMARK   67  A    between atoms: _175  and  _177
REMARK   68  A    between atoms: _177  and  _178
REMARK   69  A    between atoms: _177  and  _180
REMARK   70  A    between atoms: _180  and  _181
REMARK   71  A    between atoms: _186  and  _187
REMARK   72  A    between atoms: _189  and  _191
REMARK   73  A    between atoms: _191  and  _192
REMARK   74  A    between atoms: _191  and  _194
REMARK   75  A    between atoms: _194  and  _195
REMARK   76  A    between atoms: _195  and  _196
REMARK   77  A    between atoms: _196  and  _197
REMARK   78  A    between atoms: _206  and  _208
REMARK   79  A    between atoms: _208  and  _209
REMARK   80  A    between atoms: _208  and  _211
REMARK   81  A    between atoms: _214  and  _216
REMARK   82  A    between atoms: _216  and  _217
REMARK   83  A    between atoms: _216  and  _219
REMARK   84  A    between atoms: _219  and  _220
REMARK   85  A    between atoms: _223  and  _225
REMARK   86  A    between atoms: _225  and  _226
REMARK   87  A    between atoms: _225  and  _228
REMARK   88  A    between atoms: _228  and  _229
REMARK   89  A    between atoms: _231  and  _233
REMARK   90  A    between atoms: _233  and  _234
REMARK   91  A    between atoms: _233  and  _236
REMARK   92  A    between atoms: _239  and  _241
REMARK   93  A    between atoms: _241  and  _242
REMARK   94  A    between atoms: _241  and  _244
REMARK   95  A    between atoms: _244  and  _245
REMARK   96  A    between atoms: _250  and  _251
REMARK   97  A    between atoms: _253  and  _255
REMARK   98  A    between atoms: _255  and  _256
REMARK   99  A    between atoms: _255  and  _258
REMARK  100  A    between atoms: _261  and  _263
REMARK  101  A    between atoms: _263  and  _264
REMARK  102  A    between atoms: _263  and  _266
REMARK  103  A    between atoms: _269  and  _271
REMARK  104  A    between atoms: _271  and  _272
REMARK  105  A    between atoms: _271  and  _274
REMARK  106  A    between atoms: _274  and  _275
REMARK  107  A    between atoms: _275  and  _276
REMARK  108  A    between atoms: _279  and  _280
REMARK                            x       y       z     vdW  Elec       q    Type
REMARK                         _______ _______ _______ _____ _____    ______ ____
ROOT
ATOM      1  O   HOH     1       5.848   1.074 -17.842  0.00  0.00    +0.000 OA
ENDROOT
TORSDOF 0
REMARK  Name = ../refined-set-2016/4n9a/4n9a_pocket.pdb
REMARK  108 active torsions:
REMARK  status: ('A' for Active; 'I' for Inactive)
REMARK    1  A    between atoms: _1  and  _3
REMARK    2  A    between atoms: _3  and  _4
REMARK    3  A    between atoms: _3  and  _6
REMARK    4  A    between atoms: _6  and  _7
REMARK    5  A    between atoms: _9  and  _11
REMARK    6  A    between atoms: _11  and  _12
REMARK    7  A    between atoms: _11  and  _14
REMARK    8  A    between atoms: _14  and  _15
REMARK    9  A    between atoms: _18  and  _20
REMARK   10  A    between atoms: _20  and  _21
REMARK   11  A    between atoms: _20  and  _23
REMARK   12  A    between atoms: _23  and  _24
REMARK   13  A    between atoms: _24  and  _25
REMARK   14  A    between atoms: _25  and  _26
REMARK   15  A    between atoms: _35  and  _37
REMARK   16  A    between atoms: _37  and  _38
REMARK   17  A    between atoms: _37  and  _40
REMARK   18  A    between atoms: _40  and  _41
REMARK   19  A    between atoms: _46  and  _47
REMARK   20  A    between atoms: _49  and  _51
REMARK   21  A    between atoms: _51  and  _52
REMARK   22  A    between atoms: _51  and  _54
REMARK   23  A    between atoms: _54  and  _55
REMARK   24  A    between atoms: _58  and  _60
REMARK   25  A    between atoms: _60  and  _61
REMARK   26  A    between atoms: _64  and  _66
REMARK   27  A    between atoms: _66  and  _67
REMARK   28  A    between atoms: _66  and  _69
REMARK   29  A    between atoms: _69  and  _70
REMARK   30  A    between atoms: _73  and  _75
REMARK   31  A    between atoms: _75  and  _76
REMARK   32  A    between atoms: _75  and  _78
REMARK   33  A    between atoms: _78  and  _79
REMARK   34  A    between atoms: _82  and  _84
REMARK   35  A    between atoms: _84  and  _85
REMARK   36  A    between atoms: _87  and  _89
REMARK   37  A    between atoms: _89  and  _90
REMARK   38  A    between atoms: _89  and  _92
REMARK   39  A    between atoms: _92  and  _93
REMARK   40  A    between atoms: _98  and  _100
REMARK   41  A    between atoms: _100  and  _101
REMARK   42  A    between atoms: _100  and  _103
REMARK   43  A    between atoms: _103  and  _104
REMARK   44  A    between atoms: _104  and  _105
REMARK   45  A    between atoms: _105  and  _106
REMARK   46  A    between atoms: _115  and  _117
REMARK   47  A    between atoms: _117  and  _118
REMARK   48  A    between atoms: _117  and  _120
REMARK   49  A    between atoms: _120  and  _121
REMARK   50  A    between atoms: _124  and  _126
REMARK   51  A    between atoms: _126  and  _127
REMARK   52  A    between atoms: _130  and  _132
REMARK   53  A    between atoms: _132  and  _133
REMARK   54  A    between atoms: _132  and  _135
REMARK   55  A    between atoms: _135  and  _136
REMARK   56  A    between atoms: _136  and  _137
REMARK   57  A    between atoms: _137  and  _138
REMARK   58  A    between atoms: _147  and  _149
REMARK   59  A    between atoms: _149  and  _150
REMARK   60  A    between atoms: _149  and  _152
REMARK   61  A    between atoms: _152  and  _153
REMARK   62  A    between atoms: _160  and  _161
REMARK   63  A    between atoms: _166  and  _168
REMARK   64  A    between atoms: _168  and  _169
REMARK   65  A    between atoms: _168  and  _171
REMARK   66  A    between atoms: _171  and  _172
REMARK   67  A    between atoms: _175  and  _177
REMARK   68  A    between atoms: _177  and  _178
REMARK   69  A    between atoms: _177  and  _180
REMARK   70  A    between atoms: _180  and  _181
REMARK   71  A    between atoms: _186  and  _187
REMARK   72  A    between atoms: _189  and  _191
REMARK   73  A    between atoms: _191  and  _192
REMARK   74  A    between atoms: _191  and  _194
REMARK   75  A    between atoms: _194  and  _195
REMARK   76  A    between atoms: _195  and  _196
REMARK   77  A    between atoms: _196  and  _197
REMARK   78  A    between atoms: _206  and  _208
REMARK   79  A    between atoms: _208  and  _209
REMARK   80  A    between atoms: _208  and  _211
REMARK   81  A    between atoms: _214  and  _216
REMARK   82  A    between atoms: _216  and  _217
REMARK   83  A    between atoms: _216  and  _219
REMARK   84  A    between atoms: _219  and  _220
REMARK   85  A    between atoms: _223  and  _225
REMARK   86  A    between atoms: _225  and  _226
REMARK   87  A    between atoms: _225  and  _228
REMARK   88  A    between atoms: _228  and  _229
REMARK   89  A    between atoms: _231  and  _233
REMARK   90  A    between atoms: _233  and  _234
REMARK   91  A    between atoms: _233  and  _236
REMARK   92  A    between atoms: _239  and  _241
REMARK   93  A    between atoms: _241  and  _242
REMARK   94  A    between atoms: _241  and  _244
REMARK   95  A    between atoms: _244  and  _245
REMARK   96  A    between atoms: _250  and  _251
REMARK   97  A    between atoms: _253  and  _255
REMARK   98  A    between atoms: _255  and  _256
REMARK   99  A    between atoms: _255  and  _258
REMARK  100  A    between atoms: _261  and  _263
REMARK  101  A    between atoms: _263  and  _264
REMARK  102  A    between atoms: _263  and  _266
REMARK  103  A    between atoms: _269  and  _271
REMARK  104  A    between atoms: _271  and  _272
REMARK  105  A    between atoms: _271  and  _274
REMARK  106  A    between atoms: _274  and  _275
REMARK  107  A    between atoms: _275  and  _276
REMARK  108  A    between atoms: _279  and  _280
REMARK                            x       y       z     vdW  Elec       q    Type
REMARK                         _______ _______ _______ _____ _____    ______ ____
ROOT
ATOM      1  O   HOH     1       1.558  -5.731  -9.970  0.00  0.00    +0.000 OA
ENDROOT
TORSDOF 0
REMARK  Name = ../refined-set-2016/4n9a/4n9a_pocket.pdb
REMARK  108 active torsions:
REMARK  status: ('A' for Active; 'I' for Inactive)
REMARK    1  A    between atoms: _1  and  _3
REMARK    2  A    between atoms: _3  and  _4
REMARK    3  A    between atoms: _3  and  _6
REMARK    4  A    between atoms: _6  and  _7
REMARK    5  A    between atoms: _9  and  _11
REMARK    6  A    between atoms: _11  and  _12
REMARK    7  A    between atoms: _11  and  _14
REMARK    8  A    between atoms: _14  and  _15
REMARK    9  A    between atoms: _18  and  _20
REMARK   10  A    between atoms: _20  and  _21
REMARK   11  A    between atoms: _20  and  _23
REMARK   12  A    between atoms: _23  and  _24
REMARK   13  A    between atoms: _24  and  _25
REMARK   14  A    between atoms: _25  and  _26
REMARK   15  A    between atoms: _35  and  _37
REMARK   16  A    between atoms: _37  and  _38
REMARK   17  A    between atoms: _37  and  _40
REMARK   18  A    between atoms: _40  and  _41
REMARK   19  A    between atoms: _46  and  _47
REMARK   20  A    between atoms: _49  and  _51
REMARK   21  A    between atoms: _51  and  _52
REMARK   22  A    between atoms: _51  and  _54
REMARK   23  A    between atoms: _54  and  _55
REMARK   24  A    between atoms: _58  and  _60
REMARK   25  A    between atoms: _60  and  _61
REMARK   26  A    between atoms: _64  and  _66
REMARK   27  A    between atoms: _66  and  _67
REMARK   28  A    between atoms: _66  and  _69
REMARK   29  A    between atoms: _69  and  _70
REMARK   30  A    between atoms: _73  and  _75
REMARK   31  A    between atoms: _75  and  _76
REMARK   32  A    between atoms: _75  and  _78
REMARK   33  A    between atoms: _78  and  _79
REMARK   34  A    between atoms: _82  and  _84
REMARK   35  A    between atoms: _84  and  _85
REMARK   36  A    between atoms: _87  and  _89
REMARK   37  A    between atoms: _89  and  _90
REMARK   38  A    between atoms: _89  and  _92
REMARK   39  A    between atoms: _92  and  _93
REMARK   40  A    between atoms: _98  and  _100
REMARK   41  A    between atoms: _100  and  _101
REMARK   42  A    between atoms: _100  and  _103
REMARK   43  A    between atoms: _103  and  _104
REMARK   44  A    between atoms: _104  and  _105
REMARK   45  A    between atoms: _105  and  _106
REMARK   46  A    between atoms: _115  and  _117
REMARK   47  A    between atoms: _117  and  _118
REMARK   48  A    between atoms: _117  and  _120
REMARK   49  A    between atoms: _120  and  _121
REMARK   50  A    between atoms: _124  and  _126
REMARK   51  A    between atoms: _126  and  _127
REMARK   52  A    between atoms: _130  and  _132
REMARK   53  A    between atoms: _132  and  _133
REMARK   54  A    between atoms: _132  and  _135
REMARK   55  A    between atoms: _135  and  _136
REMARK   56  A    between atoms: _136  and  _137
REMARK   57  A    between atoms: _137  and  _138
REMARK   58  A    between atoms: _147  and  _149
REMARK   59  A    between atoms: _149  and  _150
REMARK   60  A    between atoms: _149  and  _152
REMARK   61  A    between atoms: _152  and  _153
REMARK   62  A    between atoms: _160  and  _161
REMARK   63  A    between atoms: _166  and  _168
REMARK   64  A    between atoms: _168  and  _169
REMARK   65  A    between atoms: _168  and  _171
REMARK   66  A    between atoms: _171  and  _172
REMARK   67  A    between atoms: _175  and  _177
REMARK   68  A    between atoms: _177  and  _178
REMARK   69  A    between atoms: _177  and  _180
REMARK   70  A    between atoms: _180  and  _181
REMARK   71  A    between atoms: _186  and  _187
REMARK   72  A    between atoms: _189  and  _191
REMARK   73  A    between atoms: _191  and  _192
REMARK   74  A    between atoms: _191  and  _194
REMARK   75  A    between atoms: _194  and  _195
REMARK   76  A    between atoms: _195  and  _196
REMARK   77  A    between atoms: _196  and  _197
REMARK   78  A    between atoms: _206  and  _208
REMARK   79  A    between atoms: _208  and  _209
REMARK   80  A    between atoms: _208  and  _211
REMARK   81  A    between atoms: _214  and  _216
REMARK   82  A    between atoms: _216  and  _217
REMARK   83  A    between atoms: _216  and  _219
REMARK   84  A    between atoms: _219  and  _220
REMARK   85  A    between atoms: _223  and  _225
REMARK   86  A    between atoms: _225  and  _226
REMARK   87  A    between atoms: _225  and  _228
REMARK   88  A    between atoms: _228  and  _229
REMARK   89  A    between atoms: _231  and  _233
REMARK   90  A    between atoms: _233  and  _234
REMARK   91  A    between atoms: _233  and  _236
REMARK   92  A    between atoms: _239  and  _241
REMARK   93  A    between atoms: _241  and  _242
REMARK   94  A    between atoms: _241  and  _244
REMARK   95  A    between atoms: _244  and  _245
REMARK   96  A    between atoms: _250  and  _251
REMARK   97  A    between atoms: _253  and  _255
REMARK   98  A    between atoms: _255  and  _256
REMARK   99  A    between atoms: _255  and  _258
REMARK  100  A    between atoms: _261  and  _263
REMARK  101  A    between atoms: _263  and  _264
REMARK  102  A    between atoms: _263  and  _266
REMARK  103  A    between atoms: _269  and  _271
REMARK  104  A    between atoms: _271  and  _272
REMARK  105  A    between atoms: _271  and  _274
REMARK  106  A    between atoms: _274  and  _275
REMARK  107  A    between atoms: _275  and  _276
REMARK  108  A    between atoms: _279  and  _280
REMARK                            x       y       z     vdW  Elec       q    Type
REMARK                         _______ _______ _______ _____ _____    ______ ____
ROOT
ATOM      1  O   HOH     1       7.559  -9.575  -9.005  0.00  0.00    +0.000 OA
ENDROOT
TORSDOF 0
REMARK  Name = ../refined-set-2016/4n9a/4n9a_pocket.pdb
REMARK  108 active torsions:
REMARK  status: ('A' for Active; 'I' for Inactive)
REMARK    1  A    between atoms: _1  and  _3
REMARK    2  A    between atoms: _3  and  _4
REMARK    3  A    between atoms: _3  and  _6
REMARK    4  A    between atoms: _6  and  _7
REMARK    5  A    between atoms: _9  and  _11
REMARK    6  A    between atoms: _11  and  _12
REMARK    7  A    between atoms: _11  and  _14
REMARK    8  A    between atoms: _14  and  _15
REMARK    9  A    between atoms: _18  and  _20
REMARK   10  A    between atoms: _20  and  _21
REMARK   11  A    between atoms: _20  and  _23
REMARK   12  A    between atoms: _23  and  _24
REMARK   13  A    between atoms: _24  and  _25
REMARK   14  A    between atoms: _25  and  _26
REMARK   15  A    between atoms: _35  and  _37
REMARK   16  A    between atoms: _37  and  _38
REMARK   17  A    between atoms: _37  and  _40
REMARK   18  A    between atoms: _40  and  _41
REMARK   19  A    between atoms: _46  and  _47
REMARK   20  A    between atoms: _49  and  _51
REMARK   21  A    between atoms: _51  and  _52
REMARK   22  A    between atoms: _51  and  _54
REMARK   23  A    between atoms: _54  and  _55
REMARK   24  A    between atoms: _58  and  _60
REMARK   25  A    between atoms: _60  and  _61
REMARK   26  A    between atoms: _64  and  _66
REMARK   27  A    between atoms: _66  and  _67
REMARK   28  A    between atoms: _66  and  _69
REMARK   29  A    between atoms: _69  and  _70
REMARK   30  A    between atoms: _73  and  _75
REMARK   31  A    between atoms: _75  and  _76
REMARK   32  A    between atoms: _75  and  _78
REMARK   33  A    between atoms: _78  and  _79
REMARK   34  A    between atoms: _82  and  _84
REMARK   35  A    between atoms: _84  and  _85
REMARK   36  A    between atoms: _87  and  _89
REMARK   37  A    between atoms: _89  and  _90
REMARK   38  A    between atoms: _89  and  _92
REMARK   39  A    between atoms: _92  and  _93
REMARK   40  A    between atoms: _98  and  _100
REMARK   41  A    between atoms: _100  and  _101
REMARK   42  A    between atoms: _100  and  _103
REMARK   43  A    between atoms: _103  and  _104
REMARK   44  A    between atoms: _104  and  _105
REMARK   45  A    between atoms: _105  and  _106
REMARK   46  A    between atoms: _115  and  _117
REMARK   47  A    between atoms: _117  and  _118
REMARK   48  A    between atoms: _117  and  _120
REMARK   49  A    between atoms: _120  and  _121
REMARK   50  A    between atoms: _124  and  _126
REMARK   51  A    between atoms: _126  and  _127
REMARK   52  A    between atoms: _130  and  _132
REMARK   53  A    between atoms: _132  and  _133
REMARK   54  A    between atoms: _132  and  _135
REMARK   55  A    between atoms: _135  and  _136
REMARK   56  A    between atoms: _136  and  _137
REMARK   57  A    between atoms: _137  and  _138
REMARK   58  A    between atoms: _147  and  _149
REMARK   59  A    between atoms: _149  and  _150
REMARK   60  A    between atoms: _149  and  _152
REMARK   61  A    between atoms: _152  and  _153
REMARK   62  A    between atoms: _160  and  _161
REMARK   63  A    between atoms: _166  and  _168
REMARK   64  A    between atoms: _168  and  _169
REMARK   65  A    between atoms: _168  and  _171
REMARK   66  A    between atoms: _171  and  _172
REMARK   67  A    between atoms: _175  and  _177
REMARK   68  A    between atoms: _177  and  _178
REMARK   69  A    between atoms: _177  and  _180
REMARK   70  A    between atoms: _180  and  _181
REMARK   71  A    between atoms: _186  and  _187
REMARK   72  A    between atoms: _189  and  _191
REMARK   73  A    between atoms: _191  and  _192
REMARK   74  A    between atoms: _191  and  _194
REMARK   75  A    between atoms: _194  and  _195
REMARK   76  A    between atoms: _195  and  _196
REMARK   77  A    between atoms: _196  and  _197
REMARK   78  A    between atoms: _206  and  _208
REMARK   79  A    between atoms: _208  and  _209
REMARK   80  A    between atoms: _208  and  _211
REMARK   81  A    between atoms: _214  and  _216
REMARK   82  A    between atoms: _216  and  _217
REMARK   83  A    between atoms: _216  and  _219
REMARK   84  A    between atoms: _219  and  _220
REMARK   85  A    between atoms: _223  and  _225
REMARK   86  A    between atoms: _225  and  _226
REMARK   87  A    between atoms: _225  and  _228
REMARK   88  A    between atoms: _228  and  _229
REMARK   89  A    between atoms: _231  and  _233
REMARK   90  A    between atoms: _233  and  _234
REMARK   91  A    between atoms: _233  and  _236
REMARK   92  A    between atoms: _239  and  _241
REMARK   93  A    between atoms: _241  and  _242
REMARK   94  A    between atoms: _241  and  _244
REMARK   95  A    between atoms: _244  and  _245
REMARK   96  A    between atoms: _250  and  _251
REMARK   97  A    between atoms: _253  and  _255
REMARK   98  A    between atoms: _255  and  _256
REMARK   99  A    between atoms: _255  and  _258
REMARK  100  A    between atoms: _261  and  _263
REMARK  101  A    between atoms: _263  and  _264
REMARK  102  A    between atoms: _263  and  _266
REMARK  103  A    between atoms: _269  and  _271
REMARK  104  A    between atoms: _271  and  _272
REMARK  105  A    between atoms: _271  and  _274
REMARK  106  A    between atoms: _274  and  _275
REMARK  107  A    between atoms: _275  and  _276
REMARK  108  A    between atoms: _279  and  _280
REMARK                            x       y       z     vdW  Elec       q    Type
REMARK                         _______ _______ _______ _____ _____    ______ ____
ROOT
ATOM      1  O   HOH     1      18.792 -12.340  -7.980  0.00  0.00    +0.000 OA
ENDROOT
TORSDOF 0
