REMARK  Name = ../refined-set-2016/1zfq/1zfq_pocket.pdb
REMARK  147 active torsions:
REMARK  status: ('A' for Active; 'I' for Inactive)
REMARK    1  A    between atoms: _1  and  _3
REMARK    2  A    between atoms: _3  and  _4
REMARK    3  A    between atoms: _3  and  _6
REMARK    4  A    between atoms: _6  and  _7
REMARK    5  A    between atoms: _17  and  _19
REMARK    6  A    between atoms: _19  and  _20
REMARK    7  A    between atoms: _19  and  _22
REMARK    8  A    between atoms: _22  and  _23
REMARK    9  A    between atoms: _28  and  _29
REMARK   10  A    between atoms: _31  and  _33
REMARK   11  A    between atoms: _33  and  _34
REMARK   12  A    between atoms: _33  and  _36
REMARK   13  A    between atoms: _36  and  _37
REMARK   14  A    between atoms: _40  and  _41
REMARK   15  A    between atoms: _46  and  _48
REMARK   16  A    between atoms: _48  and  _49
REMARK   17  A    between atoms: _48  and  _51
REMARK   18  A    between atoms: _51  and  _52
REMARK   19  A    between atoms: _57  and  _59
REMARK   20  A    between atoms: _59  and  _60
REMARK   21  A    between atoms: _59  and  _62
REMARK   22  A    between atoms: _62  and  _63
REMARK   23  A    between atoms: _68  and  _70
REMARK   24  A    between atoms: _70  and  _71
REMARK   25  A    between atoms: _74  and  _76
REMARK   26  A    between atoms: _76  and  _77
REMARK   27  A    between atoms: _76  and  _79
REMARK   28  A    between atoms: _79  and  _80
REMARK   29  A    between atoms: _85  and  _87
REMARK   30  A    between atoms: _87  and  _88
REMARK   31  A    between atoms: _87  and  _90
REMARK   32  A    between atoms: _90  and  _91
REMARK   33  A    between atoms: _94  and  _96
REMARK   34  A    between atoms: _96  and  _97
REMARK   35  A    between atoms: _96  and  _99
REMARK   36  A    between atoms: _99  and  _100
REMARK   37  A    between atoms: _100  and  _101
REMARK   38  A    between atoms: _106  and  _108
REMARK   39  A    between atoms: _108  and  _109
REMARK   40  A    between atoms: _108  and  _111
REMARK   41  A    between atoms: _111  and  _112
REMARK   42  A    between atoms: _118  and  _120
REMARK   43  A    between atoms: _131  and  _134
REMARK   44  A    between atoms: _134  and  _135
REMARK   45  A    between atoms: _143  and  _144
REMARK   46  A    between atoms: _152  and  _154
REMARK   47  A    between atoms: _154  and  _155
REMARK   48  A    between atoms: _154  and  _157
REMARK   49  A    between atoms: _157  and  _158
REMARK   50  A    between atoms: _158  and  _159
REMARK   51  A    between atoms: _162  and  _164
REMARK   52  A    between atoms: _164  and  _165
REMARK   53  A    between atoms: _164  and  _167
REMARK   54  A    between atoms: _167  and  _168
REMARK   55  A    between atoms: _173  and  _175
REMARK   56  A    between atoms: _175  and  _176
REMARK   57  A    between atoms: _175  and  _178
REMARK   58  A    between atoms: _178  and  _179
REMARK   59  A    between atoms: _179  and  _180
REMARK   60  A    between atoms: _183  and  _185
REMARK   61  A    between atoms: _185  and  _186
REMARK   62  A    between atoms: _185  and  _188
REMARK   63  A    between atoms: _188  and  _189
REMARK   64  A    between atoms: _192  and  _194
REMARK   65  A    between atoms: _194  and  _195
REMARK   66  A    between atoms: _194  and  _197
REMARK   67  A    between atoms: _197  and  _198
REMARK   68  A    between atoms: _199  and  ZN_414
REMARK   69  A    between atoms: _203  and  _205
REMARK   70  A    between atoms: _205  and  _206
REMARK   71  A    between atoms: _205  and  _208
REMARK   72  A    between atoms: _208  and  _209
REMARK   73  A    between atoms: _212  and  _214
REMARK   74  A    between atoms: _214  and  _215
REMARK   75  A    between atoms: _214  and  _217
REMARK   76  A    between atoms: _220  and  _222
REMARK   77  A    between atoms: _222  and  _223
REMARK   78  A    between atoms: _222  and  _225
REMARK   79  A    between atoms: _225  and  _226
REMARK   80  A    between atoms: _231  and  _233
REMARK   81  A    between atoms: _233  and  _234
REMARK   82  A    between atoms: _233  and  _236
REMARK   83  A    between atoms: _236  and  _237
REMARK   84  A    between atoms: _243  and  _245
REMARK   85  A    between atoms: _245  and  _246
REMARK   86  A    between atoms: _245  and  _248
REMARK   87  A    between atoms: _251  and  _253
REMARK   88  A    between atoms: _253  and  _254
REMARK   89  A    between atoms: _253  and  _256
REMARK   90  A    between atoms: _256  and  _257
REMARK   91  A    between atoms: _260  and  _262
REMARK   92  A    between atoms: _262  and  _263
REMARK   93  A    between atoms: _266  and  _268
REMARK   94  A    between atoms: _268  and  _269
REMARK   95  A    between atoms: _268  and  _271
REMARK   96  A    between atoms: _274  and  _276
REMARK   97  A    between atoms: _276  and  _277
REMARK   98  A    between atoms: _276  and  _279
REMARK   99  A    between atoms: _279  and  _280
REMARK  100  A    between atoms: _283  and  _285
REMARK  101  A    between atoms: _285  and  _286
REMARK  102  A    between atoms: _288  and  _290
REMARK  103  A    between atoms: _290  and  _291
REMARK  104  A    between atoms: _290  and  _293
REMARK  105  A    between atoms: _293  and  _294
REMARK  106  A    between atoms: _296  and  _298
REMARK  107  A    between atoms: _298  and  _299
REMARK  108  A    between atoms: _298  and  _301
REMARK  109  A    between atoms: _301  and  _302
REMARK  110  A    between atoms: _305  and  _307
REMARK  111  A    between atoms: _307  and  _308
REMARK  112  A    between atoms: _307  and  _310
REMARK  113  A    between atoms: _310  and  _311
REMARK  114  A    between atoms: _314  and  _316
REMARK  115  A    between atoms: _316  and  _317
REMARK  116  A    between atoms: _316  and  _319
REMARK  117  A    between atoms: _319  and  _320
REMARK  118  A    between atoms: _324  and  _325
REMARK  119  A    between atoms: _331  and  _332
REMARK  120  A    between atoms: _337  and  _339
REMARK  121  A    between atoms: _339  and  _340
REMARK  122  A    between atoms: _339  and  _342
REMARK  123  A    between atoms: _342  and  _343
REMARK  124  A    between atoms: _346  and  _348
REMARK  125  A    between atoms: _348  and  _349
REMARK  126  A    between atoms: _348  and  _351
REMARK  127  A    between atoms: _351  and  _352
REMARK  128  A    between atoms: _355  and  _357
REMARK  129  A    between atoms: _357  and  _358
REMARK  130  A    between atoms: _357  and  _360
REMARK  131  A    between atoms: _362  and  _364
REMARK  132  A    between atoms: _364  and  _365
REMARK  133  A    between atoms: _364  and  _367
REMARK  134  A    between atoms: _370  and  _372
REMARK  135  A    between atoms: _372  and  _373
REMARK  136  A    between atoms: _372  and  _375
REMARK  137  A    between atoms: _375  and  _376
REMARK  138  A    between atoms: _386  and  _388
REMARK  139  A    between atoms: _388  and  _389
REMARK  140  A    between atoms: _388  and  _391
REMARK  141  A    between atoms: _391  and  _392
REMARK  142  A    between atoms: _397  and  _399
REMARK  143  A    between atoms: _399  and  _400
REMARK  144  A    between atoms: _399  and  _402
REMARK  145  A    between atoms: _402  and  _403
REMARK  146  A    between atoms: _403  and  _404
REMARK  147  A    between atoms: _404  and  _405
REMARK                            x       y       z     vdW  Elec       q    Type
REMARK                         _______ _______ _______ _____ _____    ______ ____
ROOT
ATOM      1  CG  TRP A   1      26.929   1.904  12.128  0.00  0.00    -0.002 A 
ATOM      2  CD2 TRP A   1      25.572   1.440  12.081  0.00  0.00    +0.013 A 
ATOM      3  CE3 TRP A   1      25.000   0.191  12.322  0.00  0.00    +0.001 A 
ATOM      4  CZ3 TRP A   1      23.632   0.085  12.185  0.00  0.00    +0.000 A 
ATOM      5  CH2 TRP A   1      22.854   1.185  11.816  0.00  0.00    +0.001 A 
ATOM      6  CZ2 TRP A   1      23.381   2.422  11.575  0.00  0.00    +0.017 A 
ATOM      7  CE2 TRP A   1      24.760   2.528  11.713  0.00  0.00    +0.056 A 
ATOM      8  NE1 TRP A   1      25.597   3.618  11.540  0.00  0.00    -0.352 N 
ATOM      9  HE1 TRP A   1      25.301   4.575  11.262  0.00  0.00    +0.166 HD
ATOM     10  CD1 TRP A   1      26.866   3.224  11.794  0.00  0.00    +0.068 A 
ENDROOT
BRANCH   1  11
ATOM     11  CB  TRP A   1      28.127   1.085  12.477  0.00  0.00    +0.053 C 
BRANCH  11  12
ATOM     12  CA  TRP A   1      28.786   0.357  11.298  0.00  0.00    +0.137 C 
BRANCH  12  13
ATOM     13  N   TRP A   1      29.395   1.295  10.379  0.00  0.00    -0.239 NA
ATOM     14  H   TRP A   1      29.125   2.297  10.451  0.00  0.00    +0.142 HD
ENDBRANCH  12  13
BRANCH  12  15
ATOM     15  C   TRP A   1      27.763  -0.518  10.588  0.00  0.00    +0.224 C 
ATOM     16  O   TRP A   1      27.182  -0.105   9.577  0.00  0.00    -0.287 OA
ENDBRANCH  12  15
ENDBRANCH  11  12
ENDBRANCH   1  11
TORSDOF 4
REMARK  Name = ../refined-set-2016/1zfq/1zfq_pocket.pdb
REMARK  147 active torsions:
REMARK  status: ('A' for Active; 'I' for Inactive)
REMARK    1  A    between atoms: _1  and  _3
REMARK    2  A    between atoms: _3  and  _4
REMARK    3  A    between atoms: _3  and  _6
REMARK    4  A    between atoms: _6  and  _7
REMARK    5  A    between atoms: _17  and  _19
REMARK    6  A    between atoms: _19  and  _20
REMARK    7  A    between atoms: _19  and  _22
REMARK    8  A    between atoms: _22  and  _23
REMARK    9  A    between atoms: _28  and  _29
REMARK   10  A    between atoms: _31  and  _33
REMARK   11  A    between atoms: _33  and  _34
REMARK   12  A    between atoms: _33  and  _36
REMARK   13  A    between atoms: _36  and  _37
REMARK   14  A    between atoms: _40  and  _41
REMARK   15  A    between atoms: _46  and  _48
REMARK   16  A    between atoms: _48  and  _49
REMARK   17  A    between atoms: _48  and  _51
REMARK   18  A    between atoms: _51  and  _52
REMARK   19  A    between atoms: _57  and  _59
REMARK   20  A    between atoms: _59  and  _60
REMARK   21  A    between atoms: _59  and  _62
REMARK   22  A    between atoms: _62  and  _63
REMARK   23  A    between atoms: _68  and  _70
REMARK   24  A    between atoms: _70  and  _71
REMARK   25  A    between atoms: _74  and  _76
REMARK   26  A    between atoms: _76  and  _77
REMARK   27  A    between atoms: _76  and  _79
REMARK   28  A    between atoms: _79  and  _80
REMARK   29  A    between atoms: _85  and  _87
REMARK   30  A    between atoms: _87  and  _88
REMARK   31  A    between atoms: _87  and  _90
REMARK   32  A    between atoms: _90  and  _91
REMARK   33  A    between atoms: _94  and  _96
REMARK   34  A    between atoms: _96  and  _97
REMARK   35  A    between atoms: _96  and  _99
REMARK   36  A    between atoms: _99  and  _100
REMARK   37  A    between atoms: _100  and  _101
REMARK   38  A    between atoms: _106  and  _108
REMARK   39  A    between atoms: _108  and  _109
REMARK   40  A    between atoms: _108  and  _111
REMARK   41  A    between atoms: _111  and  _112
REMARK   42  A    between atoms: _118  and  _120
REMARK   43  A    between atoms: _131  and  _134
REMARK   44  A    between atoms: _134  and  _135
REMARK   45  A    between atoms: _143  and  _144
REMARK   46  A    between atoms: _152  and  _154
REMARK   47  A    between atoms: _154  and  _155
REMARK   48  A    between atoms: _154  and  _157
REMARK   49  A    between atoms: _157  and  _158
REMARK   50  A    between atoms: _158  and  _159
REMARK   51  A    between atoms: _162  and  _164
REMARK   52  A    between atoms: _164  and  _165
REMARK   53  A    between atoms: _164  and  _167
REMARK   54  A    between atoms: _167  and  _168
REMARK   55  A    between atoms: _173  and  _175
REMARK   56  A    between atoms: _175  and  _176
REMARK   57  A    between atoms: _175  and  _178
REMARK   58  A    between atoms: _178  and  _179
REMARK   59  A    between atoms: _179  and  _180
REMARK   60  A    between atoms: _183  and  _185
REMARK   61  A    between atoms: _185  and  _186
REMARK   62  A    between atoms: _185  and  _188
REMARK   63  A    between atoms: _188  and  _189
REMARK   64  A    between atoms: _192  and  _194
REMARK   65  A    between atoms: _194  and  _195
REMARK   66  A    between atoms: _194  and  _197
REMARK   67  A    between atoms: _197  and  _198
REMARK   68  A    between atoms: _199  and  ZN_414
REMARK   69  A    between atoms: _203  and  _205
REMARK   70  A    between atoms: _205  and  _206
REMARK   71  A    between atoms: _205  and  _208
REMARK   72  A    between atoms: _208  and  _209
REMARK   73  A    between atoms: _212  and  _214
REMARK   74  A    between atoms: _214  and  _215
REMARK   75  A    between atoms: _214  and  _217
REMARK   76  A    between atoms: _220  and  _222
REMARK   77  A    between atoms: _222  and  _223
REMARK   78  A    between atoms: _222  and  _225
REMARK   79  A    between atoms: _225  and  _226
REMARK   80  A    between atoms: _231  and  _233
REMARK   81  A    between atoms: _233  and  _234
REMARK   82  A    between atoms: _233  and  _236
REMARK   83  A    between atoms: _236  and  _237
REMARK   84  A    between atoms: _243  and  _245
REMARK   85  A    between atoms: _245  and  _246
REMARK   86  A    between atoms: _245  and  _248
REMARK   87  A    between atoms: _251  and  _253
REMARK   88  A    between atoms: _253  and  _254
REMARK   89  A    between atoms: _253  and  _256
REMARK   90  A    between atoms: _256  and  _257
REMARK   91  A    between atoms: _260  and  _262
REMARK   92  A    between atoms: _262  and  _263
REMARK   93  A    between atoms: _266  and  _268
REMARK   94  A    between atoms: _268  and  _269
REMARK   95  A    between atoms: _268  and  _271
REMARK   96  A    between atoms: _274  and  _276
REMARK   97  A    between atoms: _276  and  _277
REMARK   98  A    between atoms: _276  and  _279
REMARK   99  A    between atoms: _279  and  _280
REMARK  100  A    between atoms: _283  and  _285
REMARK  101  A    between atoms: _285  and  _286
REMARK  102  A    between atoms: _288  and  _290
REMARK  103  A    between atoms: _290  and  _291
REMARK  104  A    between atoms: _290  and  _293
REMARK  105  A    between atoms: _293  and  _294
REMARK  106  A    between atoms: _296  and  _298
REMARK  107  A    between atoms: _298  and  _299
REMARK  108  A    between atoms: _298  and  _301
REMARK  109  A    between atoms: _301  and  _302
REMARK  110  A    between atoms: _305  and  _307
REMARK  111  A    between atoms: _307  and  _308
REMARK  112  A    between atoms: _307  and  _310
REMARK  113  A    between atoms: _310  and  _311
REMARK  114  A    between atoms: _314  and  _316
REMARK  115  A    between atoms: _316  and  _317
REMARK  116  A    between atoms: _316  and  _319
REMARK  117  A    between atoms: _319  and  _320
REMARK  118  A    between atoms: _324  and  _325
REMARK  119  A    between atoms: _331  and  _332
REMARK  120  A    between atoms: _337  and  _339
REMARK  121  A    between atoms: _339  and  _340
REMARK  122  A    between atoms: _339  and  _342
REMARK  123  A    between atoms: _342  and  _343
REMARK  124  A    between atoms: _346  and  _348
REMARK  125  A    between atoms: _348  and  _349
REMARK  126  A    between atoms: _348  and  _351
REMARK  127  A    between atoms: _351  and  _352
REMARK  128  A    between atoms: _355  and  _357
REMARK  129  A    between atoms: _357  and  _358
REMARK  130  A    between atoms: _357  and  _360
REMARK  131  A    between atoms: _362  and  _364
REMARK  132  A    between atoms: _364  and  _365
REMARK  133  A    between atoms: _364  and  _367
REMARK  134  A    between atoms: _370  and  _372
REMARK  135  A    between atoms: _372  and  _373
REMARK  136  A    between atoms: _372  and  _375
REMARK  137  A    between atoms: _375  and  _376
REMARK  138  A    between atoms: _386  and  _388
REMARK  139  A    between atoms: _388  and  _389
REMARK  140  A    between atoms: _388  and  _391
REMARK  141  A    between atoms: _391  and  _392
REMARK  142  A    between atoms: _397  and  _399
REMARK  143  A    between atoms: _399  and  _400
REMARK  144  A    between atoms: _399  and  _402
REMARK  145  A    between atoms: _402  and  _403
REMARK  146  A    between atoms: _403  and  _404
REMARK  147  A    between atoms: _404  and  _405
REMARK                            x       y       z     vdW  Elec       q    Type
REMARK                         _______ _______ _______ _____ _____    ______ ____
ROOT
ATOM      1  CG  TYR A   1      23.087  -5.257  11.822  0.00  0.00    -0.020 A 
ATOM      2  CD2 TYR A   1      22.685  -5.250  13.146  0.00  0.00    -0.001 A 
ATOM      3  CE2 TYR A   1      21.838  -4.273  13.617  0.00  0.00    +0.036 A 
ATOM      4  CZ  TYR A   1      21.365  -3.272  12.802  0.00  0.00    +0.134 A 
ATOM      5  CE1 TYR A   1      21.758  -3.254  11.463  0.00  0.00    +0.036 A 
ATOM      6  CD1 TYR A   1      22.593  -4.239  11.014  0.00  0.00    -0.001 A 
ENDROOT
BRANCH   4   7
ATOM      7  OH  TYR A   1      20.538  -2.290  13.286  0.00  0.00    -0.506 OA
ATOM      8  HH  TYR A   1      20.360  -2.453  14.246  0.00  0.00    +0.292 HD
ENDBRANCH   4   7
BRANCH   1   9
ATOM      9  CB  TYR A   1      24.005  -6.327  11.282  0.00  0.00    +0.051 C 
BRANCH   9  10
ATOM     10  CA  TYR A   1      25.495  -6.023  11.544  0.00  0.00    +0.137 C 
BRANCH  10  11
ATOM     11  N   TYR A   1      25.852  -4.849  10.780  0.00  0.00    -0.239 NA
ATOM     12  H   TYR A   1      25.891  -4.900   9.742  0.00  0.00    +0.142 HD
ENDBRANCH  10  11
BRANCH  10  13
ATOM     13  C   TYR A   1      26.361  -7.233  11.245  0.00  0.00    +0.224 C 
ATOM     14  O   TYR A   1      26.047  -8.341  11.670  0.00  0.00    -0.287 OA
ENDBRANCH  10  13
ENDBRANCH   9  10
ENDBRANCH   1   9
TORSDOF 5
REMARK  Name = ../refined-set-2016/1zfq/1zfq_pocket.pdb
REMARK  147 active torsions:
REMARK  status: ('A' for Active; 'I' for Inactive)
REMARK    1  A    between atoms: _1  and  _3
REMARK    2  A    between atoms: _3  and  _4
REMARK    3  A    between atoms: _3  and  _6
REMARK    4  A    between atoms: _6  and  _7
REMARK    5  A    between atoms: _17  and  _19
REMARK    6  A    between atoms: _19  and  _20
REMARK    7  A    between atoms: _19  and  _22
REMARK    8  A    between atoms: _22  and  _23
REMARK    9  A    between atoms: _28  and  _29
REMARK   10  A    between atoms: _31  and  _33
REMARK   11  A    between atoms: _33  and  _34
REMARK   12  A    between atoms: _33  and  _36
REMARK   13  A    between atoms: _36  and  _37
REMARK   14  A    between atoms: _40  and  _41
REMARK   15  A    between atoms: _46  and  _48
REMARK   16  A    between atoms: _48  and  _49
REMARK   17  A    between atoms: _48  and  _51
REMARK   18  A    between atoms: _51  and  _52
REMARK   19  A    between atoms: _57  and  _59
REMARK   20  A    between atoms: _59  and  _60
REMARK   21  A    between atoms: _59  and  _62
REMARK   22  A    between atoms: _62  and  _63
REMARK   23  A    between atoms: _68  and  _70
REMARK   24  A    between atoms: _70  and  _71
REMARK   25  A    between atoms: _74  and  _76
REMARK   26  A    between atoms: _76  and  _77
REMARK   27  A    between atoms: _76  and  _79
REMARK   28  A    between atoms: _79  and  _80
REMARK   29  A    between atoms: _85  and  _87
REMARK   30  A    between atoms: _87  and  _88
REMARK   31  A    between atoms: _87  and  _90
REMARK   32  A    between atoms: _90  and  _91
REMARK   33  A    between atoms: _94  and  _96
REMARK   34  A    between atoms: _96  and  _97
REMARK   35  A    between atoms: _96  and  _99
REMARK   36  A    between atoms: _99  and  _100
REMARK   37  A    between atoms: _100  and  _101
REMARK   38  A    between atoms: _106  and  _108
REMARK   39  A    between atoms: _108  and  _109
REMARK   40  A    between atoms: _108  and  _111
REMARK   41  A    between atoms: _111  and  _112
REMARK   42  A    between atoms: _118  and  _120
REMARK   43  A    between atoms: _131  and  _134
REMARK   44  A    between atoms: _134  and  _135
REMARK   45  A    between atoms: _143  and  _144
REMARK   46  A    between atoms: _152  and  _154
REMARK   47  A    between atoms: _154  and  _155
REMARK   48  A    between atoms: _154  and  _157
REMARK   49  A    between atoms: _157  and  _158
REMARK   50  A    between atoms: _158  and  _159
REMARK   51  A    between atoms: _162  and  _164
REMARK   52  A    between atoms: _164  and  _165
REMARK   53  A    between atoms: _164  and  _167
REMARK   54  A    between atoms: _167  and  _168
REMARK   55  A    between atoms: _173  and  _175
REMARK   56  A    between atoms: _175  and  _176
REMARK   57  A    between atoms: _175  and  _178
REMARK   58  A    between atoms: _178  and  _179
REMARK   59  A    between atoms: _179  and  _180
REMARK   60  A    between atoms: _183  and  _185
REMARK   61  A    between atoms: _185  and  _186
REMARK   62  A    between atoms: _185  and  _188
REMARK   63  A    between atoms: _188  and  _189
REMARK   64  A    between atoms: _192  and  _194
REMARK   65  A    between atoms: _194  and  _195
REMARK   66  A    between atoms: _194  and  _197
REMARK   67  A    between atoms: _197  and  _198
REMARK   68  A    between atoms: _199  and  ZN_414
REMARK   69  A    between atoms: _203  and  _205
REMARK   70  A    between atoms: _205  and  _206
REMARK   71  A    between atoms: _205  and  _208
REMARK   72  A    between atoms: _208  and  _209
REMARK   73  A    between atoms: _212  and  _214
REMARK   74  A    between atoms: _214  and  _215
REMARK   75  A    between atoms: _214  and  _217
REMARK   76  A    between atoms: _220  and  _222
REMARK   77  A    between atoms: _222  and  _223
REMARK   78  A    between atoms: _222  and  _225
REMARK   79  A    between atoms: _225  and  _226
REMARK   80  A    between atoms: _231  and  _233
REMARK   81  A    between atoms: _233  and  _234
REMARK   82  A    between atoms: _233  and  _236
REMARK   83  A    between atoms: _236  and  _237
REMARK   84  A    between atoms: _243  and  _245
REMARK   85  A    between atoms: _245  and  _246
REMARK   86  A    between atoms: _245  and  _248
REMARK   87  A    between atoms: _251  and  _253
REMARK   88  A    between atoms: _253  and  _254
REMARK   89  A    between atoms: _253  and  _256
REMARK   90  A    between atoms: _256  and  _257
REMARK   91  A    between atoms: _260  and  _262
REMARK   92  A    between atoms: _262  and  _263
REMARK   93  A    between atoms: _266  and  _268
REMARK   94  A    between atoms: _268  and  _269
REMARK   95  A    between atoms: _268  and  _271
REMARK   96  A    between atoms: _274  and  _276
REMARK   97  A    between atoms: _276  and  _277
REMARK   98  A    between atoms: _276  and  _279
REMARK   99  A    between atoms: _279  and  _280
REMARK  100  A    between atoms: _283  and  _285
REMARK  101  A    between atoms: _285  and  _286
REMARK  102  A    between atoms: _288  and  _290
REMARK  103  A    between atoms: _290  and  _291
REMARK  104  A    between atoms: _290  and  _293
REMARK  105  A    between atoms: _293  and  _294
REMARK  106  A    between atoms: _296  and  _298
REMARK  107  A    between atoms: _298  and  _299
REMARK  108  A    between atoms: _298  and  _301
REMARK  109  A    between atoms: _301  and  _302
REMARK  110  A    between atoms: _305  and  _307
REMARK  111  A    between atoms: _307  and  _308
REMARK  112  A    between atoms: _307  and  _310
REMARK  113  A    between atoms: _310  and  _311
REMARK  114  A    between atoms: _314  and  _316
REMARK  115  A    between atoms: _316  and  _317
REMARK  116  A    between atoms: _316  and  _319
REMARK  117  A    between atoms: _319  and  _320
REMARK  118  A    between atoms: _324  and  _325
REMARK  119  A    between atoms: _331  and  _332
REMARK  120  A    between atoms: _337  and  _339
REMARK  121  A    between atoms: _339  and  _340
REMARK  122  A    between atoms: _339  and  _342
REMARK  123  A    between atoms: _342  and  _343
REMARK  124  A    between atoms: _346  and  _348
REMARK  125  A    between atoms: _348  and  _349
REMARK  126  A    between atoms: _348  and  _351
REMARK  127  A    between atoms: _351  and  _352
REMARK  128  A    between atoms: _355  and  _357
REMARK  129  A    between atoms: _357  and  _358
REMARK  130  A    between atoms: _357  and  _360
REMARK  131  A    between atoms: _362  and  _364
REMARK  132  A    between atoms: _364  and  _365
REMARK  133  A    between atoms: _364  and  _367
REMARK  134  A    between atoms: _370  and  _372
REMARK  135  A    between atoms: _372  and  _373
REMARK  136  A    between atoms: _372  and  _375
REMARK  137  A    between atoms: _375  and  _376
REMARK  138  A    between atoms: _386  and  _388
REMARK  139  A    between atoms: _388  and  _389
REMARK  140  A    between atoms: _388  and  _391
REMARK  141  A    between atoms: _391  and  _392
REMARK  142  A    between atoms: _397  and  _399
REMARK  143  A    between atoms: _399  and  _400
REMARK  144  A    between atoms: _399  and  _402
REMARK  145  A    between atoms: _402  and  _403
REMARK  146  A    between atoms: _403  and  _404
REMARK  147  A    between atoms: _404  and  _405
REMARK                            x       y       z     vdW  Elec       q    Type
REMARK                         _______ _______ _______ _____ _____    ______ ____
ROOT
ATOM      1  C   SER A   1      18.788  -1.212  23.147  0.00  0.00    +0.244 C 
ATOM      2  N   PRO A   2      18.160  -2.354  22.905  0.00  0.00    -0.273 N 
ATOM      3  CA  PRO A   2      16.996  -2.887  23.635  0.00  0.00    +0.140 C 
ATOM      4  CB  PRO A   2      16.502  -3.968  22.691  0.00  0.00    +0.030 C 
ATOM      5  CG  PRO A   2      17.769  -4.491  22.093  0.00  0.00    +0.024 C 
ATOM      6  CD  PRO A   2      18.608  -3.288  21.841  0.00  0.00    +0.094 C 
ATOM      7  O   SER A   1      19.750  -0.866  22.463  0.00  0.00    -0.273 OA
ENDROOT
BRANCH   3   8
ATOM      8  C   PRO A   2      17.400  -3.518  24.953  0.00  0.00    +0.227 C 
ATOM      9  O   PRO A   2      18.582  -3.562  25.316  0.00  0.00    -0.286 OA
ENDBRANCH   3   8
BRANCH   1  10
ATOM     10  CA  SER A   1      18.290  -0.320  24.269  0.00  0.00    +0.175 C 
BRANCH  10  11
ATOM     11  N   SER A   1      19.325   0.576  24.757  0.00  0.00    -0.236 NA
ATOM     12  H   SER A   1      19.778   1.228  24.084  0.00  0.00    +0.142 HD
ENDBRANCH  10  11
BRANCH  10  13
ATOM     13  CB  SER A   1      17.081   0.481  23.759  0.00  0.00    +0.163 C 
BRANCH  13  14
ATOM     14  OG  SER A   1      16.483   1.159  24.845  0.00  0.00    -0.380 OA
ATOM     15  H   SER A   1      16.185   0.499  25.520  0.00  0.00    +0.211 HD
ENDBRANCH  13  14
ENDBRANCH  10  13
ENDBRANCH   1  10
TORSDOF 5
REMARK  Name = ../refined-set-2016/1zfq/1zfq_pocket.pdb
REMARK  147 active torsions:
REMARK  status: ('A' for Active; 'I' for Inactive)
REMARK    1  A    between atoms: _1  and  _3
REMARK    2  A    between atoms: _3  and  _4
REMARK    3  A    between atoms: _3  and  _6
REMARK    4  A    between atoms: _6  and  _7
REMARK    5  A    between atoms: _17  and  _19
REMARK    6  A    between atoms: _19  and  _20
REMARK    7  A    between atoms: _19  and  _22
REMARK    8  A    between atoms: _22  and  _23
REMARK    9  A    between atoms: _28  and  _29
REMARK   10  A    between atoms: _31  and  _33
REMARK   11  A    between atoms: _33  and  _34
REMARK   12  A    between atoms: _33  and  _36
REMARK   13  A    between atoms: _36  and  _37
REMARK   14  A    between atoms: _40  and  _41
REMARK   15  A    between atoms: _46  and  _48
REMARK   16  A    between atoms: _48  and  _49
REMARK   17  A    between atoms: _48  and  _51
REMARK   18  A    between atoms: _51  and  _52
REMARK   19  A    between atoms: _57  and  _59
REMARK   20  A    between atoms: _59  and  _60
REMARK   21  A    between atoms: _59  and  _62
REMARK   22  A    between atoms: _62  and  _63
REMARK   23  A    between atoms: _68  and  _70
REMARK   24  A    between atoms: _70  and  _71
REMARK   25  A    between atoms: _74  and  _76
REMARK   26  A    between atoms: _76  and  _77
REMARK   27  A    between atoms: _76  and  _79
REMARK   28  A    between atoms: _79  and  _80
REMARK   29  A    between atoms: _85  and  _87
REMARK   30  A    between atoms: _87  and  _88
REMARK   31  A    between atoms: _87  and  _90
REMARK   32  A    between atoms: _90  and  _91
REMARK   33  A    between atoms: _94  and  _96
REMARK   34  A    between atoms: _96  and  _97
REMARK   35  A    between atoms: _96  and  _99
REMARK   36  A    between atoms: _99  and  _100
REMARK   37  A    between atoms: _100  and  _101
REMARK   38  A    between atoms: _106  and  _108
REMARK   39  A    between atoms: _108  and  _109
REMARK   40  A    between atoms: _108  and  _111
REMARK   41  A    between atoms: _111  and  _112
REMARK   42  A    between atoms: _118  and  _120
REMARK   43  A    between atoms: _131  and  _134
REMARK   44  A    between atoms: _134  and  _135
REMARK   45  A    between atoms: _143  and  _144
REMARK   46  A    between atoms: _152  and  _154
REMARK   47  A    between atoms: _154  and  _155
REMARK   48  A    between atoms: _154  and  _157
REMARK   49  A    between atoms: _157  and  _158
REMARK   50  A    between atoms: _158  and  _159
REMARK   51  A    between atoms: _162  and  _164
REMARK   52  A    between atoms: _164  and  _165
REMARK   53  A    between atoms: _164  and  _167
REMARK   54  A    between atoms: _167  and  _168
REMARK   55  A    between atoms: _173  and  _175
REMARK   56  A    between atoms: _175  and  _176
REMARK   57  A    between atoms: _175  and  _178
REMARK   58  A    between atoms: _178  and  _179
REMARK   59  A    between atoms: _179  and  _180
REMARK   60  A    between atoms: _183  and  _185
REMARK   61  A    between atoms: _185  and  _186
REMARK   62  A    between atoms: _185  and  _188
REMARK   63  A    between atoms: _188  and  _189
REMARK   64  A    between atoms: _192  and  _194
REMARK   65  A    between atoms: _194  and  _195
REMARK   66  A    between atoms: _194  and  _197
REMARK   67  A    between atoms: _197  and  _198
REMARK   68  A    between atoms: _199  and  ZN_414
REMARK   69  A    between atoms: _203  and  _205
REMARK   70  A    between atoms: _205  and  _206
REMARK   71  A    between atoms: _205  and  _208
REMARK   72  A    between atoms: _208  and  _209
REMARK   73  A    between atoms: _212  and  _214
REMARK   74  A    between atoms: _214  and  _215
REMARK   75  A    between atoms: _214  and  _217
REMARK   76  A    between atoms: _220  and  _222
REMARK   77  A    between atoms: _222  and  _223
REMARK   78  A    between atoms: _222  and  _225
REMARK   79  A    between atoms: _225  and  _226
REMARK   80  A    between atoms: _231  and  _233
REMARK   81  A    between atoms: _233  and  _234
REMARK   82  A    between atoms: _233  and  _236
REMARK   83  A    between atoms: _236  and  _237
REMARK   84  A    between atoms: _243  and  _245
REMARK   85  A    between atoms: _245  and  _246
REMARK   86  A    between atoms: _245  and  _248
REMARK   87  A    between atoms: _251  and  _253
REMARK   88  A    between atoms: _253  and  _254
REMARK   89  A    between atoms: _253  and  _256
REMARK   90  A    between atoms: _256  and  _257
REMARK   91  A    between atoms: _260  and  _262
REMARK   92  A    between atoms: _262  and  _263
REMARK   93  A    between atoms: _266  and  _268
REMARK   94  A    between atoms: _268  and  _269
REMARK   95  A    between atoms: _268  and  _271
REMARK   96  A    between atoms: _274  and  _276
REMARK   97  A    between atoms: _276  and  _277
REMARK   98  A    between atoms: _276  and  _279
REMARK   99  A    between atoms: _279  and  _280
REMARK  100  A    between atoms: _283  and  _285
REMARK  101  A    between atoms: _285  and  _286
REMARK  102  A    between atoms: _288  and  _290
REMARK  103  A    between atoms: _290  and  _291
REMARK  104  A    between atoms: _290  and  _293
REMARK  105  A    between atoms: _293  and  _294
REMARK  106  A    between atoms: _296  and  _298
REMARK  107  A    between atoms: _298  and  _299
REMARK  108  A    between atoms: _298  and  _301
REMARK  109  A    between atoms: _301  and  _302
REMARK  110  A    between atoms: _305  and  _307
REMARK  111  A    between atoms: _307  and  _308
REMARK  112  A    between atoms: _307  and  _310
REMARK  113  A    between atoms: _310  and  _311
REMARK  114  A    between atoms: _314  and  _316
REMARK  115  A    between atoms: _316  and  _317
REMARK  116  A    between atoms: _316  and  _319
REMARK  117  A    between atoms: _319  and  _320
REMARK  118  A    between atoms: _324  and  _325
REMARK  119  A    between atoms: _331  and  _332
REMARK  120  A    between atoms: _337  and  _339
REMARK  121  A    between atoms: _339  and  _340
REMARK  122  A    between atoms: _339  and  _342
REMARK  123  A    between atoms: _342  and  _343
REMARK  124  A    between atoms: _346  and  _348
REMARK  125  A    between atoms: _348  and  _349
REMARK  126  A    between atoms: _348  and  _351
REMARK  127  A    between atoms: _351  and  _352
REMARK  128  A    between atoms: _355  and  _357
REMARK  129  A    between atoms: _357  and  _358
REMARK  130  A    between atoms: _357  and  _360
REMARK  131  A    between atoms: _362  and  _364
REMARK  132  A    between atoms: _364  and  _365
REMARK  133  A    between atoms: _364  and  _367
REMARK  134  A    between atoms: _370  and  _372
REMARK  135  A    between atoms: _372  and  _373
REMARK  136  A    between atoms: _372  and  _375
REMARK  137  A    between atoms: _375  and  _376
REMARK  138  A    between atoms: _386  and  _388
REMARK  139  A    between atoms: _388  and  _389
REMARK  140  A    between atoms: _388  and  _391
REMARK  141  A    between atoms: _391  and  _392
REMARK  142  A    between atoms: _397  and  _399
REMARK  143  A    between atoms: _399  and  _400
REMARK  144  A    between atoms: _399  and  _402
REMARK  145  A    between atoms: _402  and  _403
REMARK  146  A    between atoms: _403  and  _404
REMARK  147  A    between atoms: _404  and  _405
REMARK                            x       y       z     vdW  Elec       q    Type
REMARK                         _______ _______ _______ _____ _____    ______ ____
ROOT
ATOM      1  CB  ASN A   1      18.549   3.699   5.279  0.00  0.00    +0.110 C 
ENDROOT
BRANCH   1   2
ATOM      2  CG  ASN A   1      18.170   2.855   6.479  0.00  0.00    +0.221 C 
ATOM      3  ND2 ASN A   1      17.404   3.437   7.382  0.00  0.00    -0.329 N 
ATOM      4 HD21 ASN A   1      17.101   2.909   8.225  0.00  0.00    +0.145 HD
ATOM      5 HD22 ASN A   1      17.104   4.424   7.251  0.00  0.00    +0.145 HD
ATOM      6  OD1 ASN A   1      18.563   1.696   6.566  0.00  0.00    -0.275 OA
ENDBRANCH   1   2
BRANCH   1   7
ATOM      7  CA  ASN A   1      18.894   2.850   4.063  0.00  0.00    +0.142 C 
BRANCH   7   8
ATOM      8  N   ASN A   1      17.778   2.004   3.613  0.00  0.00    -0.239 NA
ATOM      9  H   ASN A   1      17.239   1.453   4.311  0.00  0.00    +0.142 HD
ENDBRANCH   7   8
BRANCH   7  10
ATOM     10  C   ASN A   1      20.164   2.020   4.321  0.00  0.00    +0.225 C 
ATOM     11  O   ASN A   1      21.103   2.554   4.900  0.00  0.00    -0.287 OA
ENDBRANCH   7  10
ENDBRANCH   1   7
TORSDOF 4
REMARK  Name = ../refined-set-2016/1zfq/1zfq_pocket.pdb
REMARK  147 active torsions:
REMARK  status: ('A' for Active; 'I' for Inactive)
REMARK    1  A    between atoms: _1  and  _3
REMARK    2  A    between atoms: _3  and  _4
REMARK    3  A    between atoms: _3  and  _6
REMARK    4  A    between atoms: _6  and  _7
REMARK    5  A    between atoms: _17  and  _19
REMARK    6  A    between atoms: _19  and  _20
REMARK    7  A    between atoms: _19  and  _22
REMARK    8  A    between atoms: _22  and  _23
REMARK    9  A    between atoms: _28  and  _29
REMARK   10  A    between atoms: _31  and  _33
REMARK   11  A    between atoms: _33  and  _34
REMARK   12  A    between atoms: _33  and  _36
REMARK   13  A    between atoms: _36  and  _37
REMARK   14  A    between atoms: _40  and  _41
REMARK   15  A    between atoms: _46  and  _48
REMARK   16  A    between atoms: _48  and  _49
REMARK   17  A    between atoms: _48  and  _51
REMARK   18  A    between atoms: _51  and  _52
REMARK   19  A    between atoms: _57  and  _59
REMARK   20  A    between atoms: _59  and  _60
REMARK   21  A    between atoms: _59  and  _62
REMARK   22  A    between atoms: _62  and  _63
REMARK   23  A    between atoms: _68  and  _70
REMARK   24  A    between atoms: _70  and  _71
REMARK   25  A    between atoms: _74  and  _76
REMARK   26  A    between atoms: _76  and  _77
REMARK   27  A    between atoms: _76  and  _79
REMARK   28  A    between atoms: _79  and  _80
REMARK   29  A    between atoms: _85  and  _87
REMARK   30  A    between atoms: _87  and  _88
REMARK   31  A    between atoms: _87  and  _90
REMARK   32  A    between atoms: _90  and  _91
REMARK   33  A    between atoms: _94  and  _96
REMARK   34  A    between atoms: _96  and  _97
REMARK   35  A    between atoms: _96  and  _99
REMARK   36  A    between atoms: _99  and  _100
REMARK   37  A    between atoms: _100  and  _101
REMARK   38  A    between atoms: _106  and  _108
REMARK   39  A    between atoms: _108  and  _109
REMARK   40  A    between atoms: _108  and  _111
REMARK   41  A    between atoms: _111  and  _112
REMARK   42  A    between atoms: _118  and  _120
REMARK   43  A    between atoms: _131  and  _134
REMARK   44  A    between atoms: _134  and  _135
REMARK   45  A    between atoms: _143  and  _144
REMARK   46  A    between atoms: _152  and  _154
REMARK   47  A    between atoms: _154  and  _155
REMARK   48  A    between atoms: _154  and  _157
REMARK   49  A    between atoms: _157  and  _158
REMARK   50  A    between atoms: _158  and  _159
REMARK   51  A    between atoms: _162  and  _164
REMARK   52  A    between atoms: _164  and  _165
REMARK   53  A    between atoms: _164  and  _167
REMARK   54  A    between atoms: _167  and  _168
REMARK   55  A    between atoms: _173  and  _175
REMARK   56  A    between atoms: _175  and  _176
REMARK   57  A    between atoms: _175  and  _178
REMARK   58  A    between atoms: _178  and  _179
REMARK   59  A    between atoms: _179  and  _180
REMARK   60  A    between atoms: _183  and  _185
REMARK   61  A    between atoms: _185  and  _186
REMARK   62  A    between atoms: _185  and  _188
REMARK   63  A    between atoms: _188  and  _189
REMARK   64  A    between atoms: _192  and  _194
REMARK   65  A    between atoms: _194  and  _195
REMARK   66  A    between atoms: _194  and  _197
REMARK   67  A    between atoms: _197  and  _198
REMARK   68  A    between atoms: _199  and  ZN_414
REMARK   69  A    between atoms: _203  and  _205
REMARK   70  A    between atoms: _205  and  _206
REMARK   71  A    between atoms: _205  and  _208
REMARK   72  A    between atoms: _208  and  _209
REMARK   73  A    between atoms: _212  and  _214
REMARK   74  A    between atoms: _214  and  _215
REMARK   75  A    between atoms: _214  and  _217
REMARK   76  A    between atoms: _220  and  _222
REMARK   77  A    between atoms: _222  and  _223
REMARK   78  A    between atoms: _222  and  _225
REMARK   79  A    between atoms: _225  and  _226
REMARK   80  A    between atoms: _231  and  _233
REMARK   81  A    between atoms: _233  and  _234
REMARK   82  A    between atoms: _233  and  _236
REMARK   83  A    between atoms: _236  and  _237
REMARK   84  A    between atoms: _243  and  _245
REMARK   85  A    between atoms: _245  and  _246
REMARK   86  A    between atoms: _245  and  _248
REMARK   87  A    between atoms: _251  and  _253
REMARK   88  A    between atoms: _253  and  _254
REMARK   89  A    between atoms: _253  and  _256
REMARK   90  A    between atoms: _256  and  _257
REMARK   91  A    between atoms: _260  and  _262
REMARK   92  A    between atoms: _262  and  _263
REMARK   93  A    between atoms: _266  and  _268
REMARK   94  A    between atoms: _268  and  _269
REMARK   95  A    between atoms: _268  and  _271
REMARK   96  A    between atoms: _274  and  _276
REMARK   97  A    between atoms: _276  and  _277
REMARK   98  A    between atoms: _276  and  _279
REMARK   99  A    between atoms: _279  and  _280
REMARK  100  A    between atoms: _283  and  _285
REMARK  101  A    between atoms: _285  and  _286
REMARK  102  A    between atoms: _288  and  _290
REMARK  103  A    between atoms: _290  and  _291
REMARK  104  A    between atoms: _290  and  _293
REMARK  105  A    between atoms: _293  and  _294
REMARK  106  A    between atoms: _296  and  _298
REMARK  107  A    between atoms: _298  and  _299
REMARK  108  A    between atoms: _298  and  _301
REMARK  109  A    between atoms: _301  and  _302
REMARK  110  A    between atoms: _305  and  _307
REMARK  111  A    between atoms: _307  and  _308
REMARK  112  A    between atoms: _307  and  _310
REMARK  113  A    between atoms: _310  and  _311
REMARK  114  A    between atoms: _314  and  _316
REMARK  115  A    between atoms: _316  and  _317
REMARK  116  A    between atoms: _316  and  _319
REMARK  117  A    between atoms: _319  and  _320
REMARK  118  A    between atoms: _324  and  _325
REMARK  119  A    between atoms: _331  and  _332
REMARK  120  A    between atoms: _337  and  _339
REMARK  121  A    between atoms: _339  and  _340
REMARK  122  A    between atoms: _339  and  _342
REMARK  123  A    between atoms: _342  and  _343
REMARK  124  A    between atoms: _346  and  _348
REMARK  125  A    between atoms: _348  and  _349
REMARK  126  A    between atoms: _348  and  _351
REMARK  127  A    between atoms: _351  and  _352
REMARK  128  A    between atoms: _355  and  _357
REMARK  129  A    between atoms: _357  and  _358
REMARK  130  A    between atoms: _357  and  _360
REMARK  131  A    between atoms: _362  and  _364
REMARK  132  A    between atoms: _364  and  _365
REMARK  133  A    between atoms: _364  and  _367
REMARK  134  A    between atoms: _370  and  _372
REMARK  135  A    between atoms: _372  and  _373
REMARK  136  A    between atoms: _372  and  _375
REMARK  137  A    between atoms: _375  and  _376
REMARK  138  A    between atoms: _386  and  _388
REMARK  139  A    between atoms: _388  and  _389
REMARK  140  A    between atoms: _388  and  _391
REMARK  141  A    between atoms: _391  and  _392
REMARK  142  A    between atoms: _397  and  _399
REMARK  143  A    between atoms: _399  and  _400
REMARK  144  A    between atoms: _399  and  _402
REMARK  145  A    between atoms: _402  and  _403
REMARK  146  A    between atoms: _403  and  _404
REMARK  147  A    between atoms: _404  and  _405
REMARK                            x       y       z     vdW  Elec       q    Type
REMARK                         _______ _______ _______ _____ _____    ______ ____
ROOT
ATOM      1  CA  HIS A   1      20.282  -1.026   7.707  0.00  0.00    +0.151 C 
ENDROOT
BRANCH   1   2
ATOM      2  C   HIS A   1      18.896  -1.632   7.919  0.00  0.00    +0.239 C 
ATOM      3  O   HIS A   1      18.803  -2.653   8.612  0.00  0.00    -0.274 OA
ATOM      4  N   ALA A   2      17.873  -1.029   7.372  0.00  0.00    -0.298 N 
ATOM      5  H   ALA A   2      18.060  -0.117   6.908  0.00  0.00    +0.150 HD
BRANCH   4   6
ATOM      6  CA  ALA A   2      16.510  -1.503   7.348  0.00  0.00    +0.137 C 
ATOM      7  CB  ALA A   2      15.863  -1.245   8.686  0.00  0.00    +0.030 C 
BRANCH   6   8
ATOM      8  C   ALA A   2      15.781  -0.784   6.211  0.00  0.00    +0.227 C 
ATOM      9  O   ALA A   2      16.471  -0.151   5.407  0.00  0.00    -0.286 OA
ENDBRANCH   6   8
ENDBRANCH   4   6
ENDBRANCH   1   2
BRANCH   1  10
ATOM     10  N   HIS A   1      20.421  -0.452   6.357  0.00  0.00    -0.238 NA
ATOM     11  H   HIS A   1      19.749   0.286   6.064  0.00  0.00    +0.142 HD
ENDBRANCH   1  10
BRANCH   1  12
ATOM     12  CB  HIS A   1      20.556   0.017   8.799  0.00  0.00    +0.074 C 
BRANCH  12  13
ATOM     13  CG  HIS A   1      21.846   0.753   8.577  0.00  0.00    +0.082 A 
ATOM     14  ND1 HIS A   1      23.057   0.080   8.654  0.00  0.00    -0.227 NA
ATOM     15  CE1 HIS A   1      24.032   0.938   8.430  0.00  0.00    +0.199 A 
ATOM     16  NE2 HIS A   1      23.498   2.132   8.180  0.00  0.00    -0.221 NA
ATOM     17  CD2 HIS A   1      22.131   2.033   8.279  0.00  0.00    +0.115 A 
ENDBRANCH  12  13
ENDBRANCH   1  12
TORSDOF 6
REMARK  Name = ../refined-set-2016/1zfq/1zfq_pocket.pdb
REMARK  147 active torsions:
REMARK  status: ('A' for Active; 'I' for Inactive)
REMARK    1  A    between atoms: _1  and  _3
REMARK    2  A    between atoms: _3  and  _4
REMARK    3  A    between atoms: _3  and  _6
REMARK    4  A    between atoms: _6  and  _7
REMARK    5  A    between atoms: _17  and  _19
REMARK    6  A    between atoms: _19  and  _20
REMARK    7  A    between atoms: _19  and  _22
REMARK    8  A    between atoms: _22  and  _23
REMARK    9  A    between atoms: _28  and  _29
REMARK   10  A    between atoms: _31  and  _33
REMARK   11  A    between atoms: _33  and  _34
REMARK   12  A    between atoms: _33  and  _36
REMARK   13  A    between atoms: _36  and  _37
REMARK   14  A    between atoms: _40  and  _41
REMARK   15  A    between atoms: _46  and  _48
REMARK   16  A    between atoms: _48  and  _49
REMARK   17  A    between atoms: _48  and  _51
REMARK   18  A    between atoms: _51  and  _52
REMARK   19  A    between atoms: _57  and  _59
REMARK   20  A    between atoms: _59  and  _60
REMARK   21  A    between atoms: _59  and  _62
REMARK   22  A    between atoms: _62  and  _63
REMARK   23  A    between atoms: _68  and  _70
REMARK   24  A    between atoms: _70  and  _71
REMARK   25  A    between atoms: _74  and  _76
REMARK   26  A    between atoms: _76  and  _77
REMARK   27  A    between atoms: _76  and  _79
REMARK   28  A    between atoms: _79  and  _80
REMARK   29  A    between atoms: _85  and  _87
REMARK   30  A    between atoms: _87  and  _88
REMARK   31  A    between atoms: _87  and  _90
REMARK   32  A    between atoms: _90  and  _91
REMARK   33  A    between atoms: _94  and  _96
REMARK   34  A    between atoms: _96  and  _97
REMARK   35  A    between atoms: _96  and  _99
REMARK   36  A    between atoms: _99  and  _100
REMARK   37  A    between atoms: _100  and  _101
REMARK   38  A    between atoms: _106  and  _108
REMARK   39  A    between atoms: _108  and  _109
REMARK   40  A    between atoms: _108  and  _111
REMARK   41  A    between atoms: _111  and  _112
REMARK   42  A    between atoms: _118  and  _120
REMARK   43  A    between atoms: _131  and  _134
REMARK   44  A    between atoms: _134  and  _135
REMARK   45  A    between atoms: _143  and  _144
REMARK   46  A    between atoms: _152  and  _154
REMARK   47  A    between atoms: _154  and  _155
REMARK   48  A    between atoms: _154  and  _157
REMARK   49  A    between atoms: _157  and  _158
REMARK   50  A    between atoms: _158  and  _159
REMARK   51  A    between atoms: _162  and  _164
REMARK   52  A    between atoms: _164  and  _165
REMARK   53  A    between atoms: _164  and  _167
REMARK   54  A    between atoms: _167  and  _168
REMARK   55  A    between atoms: _173  and  _175
REMARK   56  A    between atoms: _175  and  _176
REMARK   57  A    between atoms: _175  and  _178
REMARK   58  A    between atoms: _178  and  _179
REMARK   59  A    between atoms: _179  and  _180
REMARK   60  A    between atoms: _183  and  _185
REMARK   61  A    between atoms: _185  and  _186
REMARK   62  A    between atoms: _185  and  _188
REMARK   63  A    between atoms: _188  and  _189
REMARK   64  A    between atoms: _192  and  _194
REMARK   65  A    between atoms: _194  and  _195
REMARK   66  A    between atoms: _194  and  _197
REMARK   67  A    between atoms: _197  and  _198
REMARK   68  A    between atoms: _199  and  ZN_414
REMARK   69  A    between atoms: _203  and  _205
REMARK   70  A    between atoms: _205  and  _206
REMARK   71  A    between atoms: _205  and  _208
REMARK   72  A    between atoms: _208  and  _209
REMARK   73  A    between atoms: _212  and  _214
REMARK   74  A    between atoms: _214  and  _215
REMARK   75  A    between atoms: _214  and  _217
REMARK   76  A    between atoms: _220  and  _222
REMARK   77  A    between atoms: _222  and  _223
REMARK   78  A    between atoms: _222  and  _225
REMARK   79  A    between atoms: _225  and  _226
REMARK   80  A    between atoms: _231  and  _233
REMARK   81  A    between atoms: _233  and  _234
REMARK   82  A    between atoms: _233  and  _236
REMARK   83  A    between atoms: _236  and  _237
REMARK   84  A    between atoms: _243  and  _245
REMARK   85  A    between atoms: _245  and  _246
REMARK   86  A    between atoms: _245  and  _248
REMARK   87  A    between atoms: _251  and  _253
REMARK   88  A    between atoms: _253  and  _254
REMARK   89  A    between atoms: _253  and  _256
REMARK   90  A    between atoms: _256  and  _257
REMARK   91  A    between atoms: _260  and  _262
REMARK   92  A    between atoms: _262  and  _263
REMARK   93  A    between atoms: _266  and  _268
REMARK   94  A    between atoms: _268  and  _269
REMARK   95  A    between atoms: _268  and  _271
REMARK   96  A    between atoms: _274  and  _276
REMARK   97  A    between atoms: _276  and  _277
REMARK   98  A    between atoms: _276  and  _279
REMARK   99  A    between atoms: _279  and  _280
REMARK  100  A    between atoms: _283  and  _285
REMARK  101  A    between atoms: _285  and  _286
REMARK  102  A    between atoms: _288  and  _290
REMARK  103  A    between atoms: _290  and  _291
REMARK  104  A    between atoms: _290  and  _293
REMARK  105  A    between atoms: _293  and  _294
REMARK  106  A    between atoms: _296  and  _298
REMARK  107  A    between atoms: _298  and  _299
REMARK  108  A    between atoms: _298  and  _301
REMARK  109  A    between atoms: _301  and  _302
REMARK  110  A    between atoms: _305  and  _307
REMARK  111  A    between atoms: _307  and  _308
REMARK  112  A    between atoms: _307  and  _310
REMARK  113  A    between atoms: _310  and  _311
REMARK  114  A    between atoms: _314  and  _316
REMARK  115  A    between atoms: _316  and  _317
REMARK  116  A    between atoms: _316  and  _319
REMARK  117  A    between atoms: _319  and  _320
REMARK  118  A    between atoms: _324  and  _325
REMARK  119  A    between atoms: _331  and  _332
REMARK  120  A    between atoms: _337  and  _339
REMARK  121  A    between atoms: _339  and  _340
REMARK  122  A    between atoms: _339  and  _342
REMARK  123  A    between atoms: _342  and  _343
REMARK  124  A    between atoms: _346  and  _348
REMARK  125  A    between atoms: _348  and  _349
REMARK  126  A    between atoms: _348  and  _351
REMARK  127  A    between atoms: _351  and  _352
REMARK  128  A    between atoms: _355  and  _357
REMARK  129  A    between atoms: _357  and  _358
REMARK  130  A    between atoms: _357  and  _360
REMARK  131  A    between atoms: _362  and  _364
REMARK  132  A    between atoms: _364  and  _365
REMARK  133  A    between atoms: _364  and  _367
REMARK  134  A    between atoms: _370  and  _372
REMARK  135  A    between atoms: _372  and  _373
REMARK  136  A    between atoms: _372  and  _375
REMARK  137  A    between atoms: _375  and  _376
REMARK  138  A    between atoms: _386  and  _388
REMARK  139  A    between atoms: _388  and  _389
REMARK  140  A    between atoms: _388  and  _391
REMARK  141  A    between atoms: _391  and  _392
REMARK  142  A    between atoms: _397  and  _399
REMARK  143  A    between atoms: _399  and  _400
REMARK  144  A    between atoms: _399  and  _402
REMARK  145  A    between atoms: _402  and  _403
REMARK  146  A    between atoms: _403  and  _404
REMARK  147  A    between atoms: _404  and  _405
REMARK                            x       y       z     vdW  Elec       q    Type
REMARK                         _______ _______ _______ _____ _____    ______ ____
ROOT
ATOM      1  CB  ASN A   1      12.606   4.389   6.950  0.00  0.00    +0.110 C 
ENDROOT
BRANCH   1   2
ATOM      2  CG  ASN A   1      13.668   4.230   7.991  0.00  0.00    +0.221 C 
ATOM      3  OD1 ASN A   1      13.706   3.184   8.629  0.00  0.00    -0.275 OA
ATOM      4  ND2 ASN A   1      14.517   5.222   8.202  0.00  0.00    -0.329 N 
ATOM      5 HD21 ASN A   1      15.252   5.131   8.932  0.00  0.00    +0.145 HD
ATOM      6 HD22 ASN A   1      14.450   6.093   7.638  0.00  0.00    +0.145 HD
ENDBRANCH   1   2
BRANCH   1   7
ATOM      7  CA  ASN A   1      11.849   3.102   6.581  0.00  0.00    +0.142 C 
BRANCH   7   8
ATOM      8  N   ASN A   1      12.690   2.179   5.847  0.00  0.00    -0.239 NA
ATOM      9  H   ASN A   1      13.236   2.530   5.035  0.00  0.00    +0.142 HD
ENDBRANCH   7   8
BRANCH   7  10
ATOM     10  C   ASN A   1      10.635   3.499   5.760  0.00  0.00    +0.225 C 
ATOM     11  O   ASN A   1      10.840   3.994   4.652  0.00  0.00    -0.287 OA
ENDBRANCH   7  10
ENDBRANCH   1   7
TORSDOF 4
REMARK  Name = ../refined-set-2016/1zfq/1zfq_pocket.pdb
REMARK  147 active torsions:
REMARK  status: ('A' for Active; 'I' for Inactive)
REMARK    1  A    between atoms: _1  and  _3
REMARK    2  A    between atoms: _3  and  _4
REMARK    3  A    between atoms: _3  and  _6
REMARK    4  A    between atoms: _6  and  _7
REMARK    5  A    between atoms: _17  and  _19
REMARK    6  A    between atoms: _19  and  _20
REMARK    7  A    between atoms: _19  and  _22
REMARK    8  A    between atoms: _22  and  _23
REMARK    9  A    between atoms: _28  and  _29
REMARK   10  A    between atoms: _31  and  _33
REMARK   11  A    between atoms: _33  and  _34
REMARK   12  A    between atoms: _33  and  _36
REMARK   13  A    between atoms: _36  and  _37
REMARK   14  A    between atoms: _40  and  _41
REMARK   15  A    between atoms: _46  and  _48
REMARK   16  A    between atoms: _48  and  _49
REMARK   17  A    between atoms: _48  and  _51
REMARK   18  A    between atoms: _51  and  _52
REMARK   19  A    between atoms: _57  and  _59
REMARK   20  A    between atoms: _59  and  _60
REMARK   21  A    between atoms: _59  and  _62
REMARK   22  A    between atoms: _62  and  _63
REMARK   23  A    between atoms: _68  and  _70
REMARK   24  A    between atoms: _70  and  _71
REMARK   25  A    between atoms: _74  and  _76
REMARK   26  A    between atoms: _76  and  _77
REMARK   27  A    between atoms: _76  and  _79
REMARK   28  A    between atoms: _79  and  _80
REMARK   29  A    between atoms: _85  and  _87
REMARK   30  A    between atoms: _87  and  _88
REMARK   31  A    between atoms: _87  and  _90
REMARK   32  A    between atoms: _90  and  _91
REMARK   33  A    between atoms: _94  and  _96
REMARK   34  A    between atoms: _96  and  _97
REMARK   35  A    between atoms: _96  and  _99
REMARK   36  A    between atoms: _99  and  _100
REMARK   37  A    between atoms: _100  and  _101
REMARK   38  A    between atoms: _106  and  _108
REMARK   39  A    between atoms: _108  and  _109
REMARK   40  A    between atoms: _108  and  _111
REMARK   41  A    between atoms: _111  and  _112
REMARK   42  A    between atoms: _118  and  _120
REMARK   43  A    between atoms: _131  and  _134
REMARK   44  A    between atoms: _134  and  _135
REMARK   45  A    between atoms: _143  and  _144
REMARK   46  A    between atoms: _152  and  _154
REMARK   47  A    between atoms: _154  and  _155
REMARK   48  A    between atoms: _154  and  _157
REMARK   49  A    between atoms: _157  and  _158
REMARK   50  A    between atoms: _158  and  _159
REMARK   51  A    between atoms: _162  and  _164
REMARK   52  A    between atoms: _164  and  _165
REMARK   53  A    between atoms: _164  and  _167
REMARK   54  A    between atoms: _167  and  _168
REMARK   55  A    between atoms: _173  and  _175
REMARK   56  A    between atoms: _175  and  _176
REMARK   57  A    between atoms: _175  and  _178
REMARK   58  A    between atoms: _178  and  _179
REMARK   59  A    between atoms: _179  and  _180
REMARK   60  A    between atoms: _183  and  _185
REMARK   61  A    between atoms: _185  and  _186
REMARK   62  A    between atoms: _185  and  _188
REMARK   63  A    between atoms: _188  and  _189
REMARK   64  A    between atoms: _192  and  _194
REMARK   65  A    between atoms: _194  and  _195
REMARK   66  A    between atoms: _194  and  _197
REMARK   67  A    between atoms: _197  and  _198
REMARK   68  A    between atoms: _199  and  ZN_414
REMARK   69  A    between atoms: _203  and  _205
REMARK   70  A    between atoms: _205  and  _206
REMARK   71  A    between atoms: _205  and  _208
REMARK   72  A    between atoms: _208  and  _209
REMARK   73  A    between atoms: _212  and  _214
REMARK   74  A    between atoms: _214  and  _215
REMARK   75  A    between atoms: _214  and  _217
REMARK   76  A    between atoms: _220  and  _222
REMARK   77  A    between atoms: _222  and  _223
REMARK   78  A    between atoms: _222  and  _225
REMARK   79  A    between atoms: _225  and  _226
REMARK   80  A    between atoms: _231  and  _233
REMARK   81  A    between atoms: _233  and  _234
REMARK   82  A    between atoms: _233  and  _236
REMARK   83  A    between atoms: _236  and  _237
REMARK   84  A    between atoms: _243  and  _245
REMARK   85  A    between atoms: _245  and  _246
REMARK   86  A    between atoms: _245  and  _248
REMARK   87  A    between atoms: _251  and  _253
REMARK   88  A    between atoms: _253  and  _254
REMARK   89  A    between atoms: _253  and  _256
REMARK   90  A    between atoms: _256  and  _257
REMARK   91  A    between atoms: _260  and  _262
REMARK   92  A    between atoms: _262  and  _263
REMARK   93  A    between atoms: _266  and  _268
REMARK   94  A    between atoms: _268  and  _269
REMARK   95  A    between atoms: _268  and  _271
REMARK   96  A    between atoms: _274  and  _276
REMARK   97  A    between atoms: _276  and  _277
REMARK   98  A    between atoms: _276  and  _279
REMARK   99  A    between atoms: _279  and  _280
REMARK  100  A    between atoms: _283  and  _285
REMARK  101  A    between atoms: _285  and  _286
REMARK  102  A    between atoms: _288  and  _290
REMARK  103  A    between atoms: _290  and  _291
REMARK  104  A    between atoms: _290  and  _293
REMARK  105  A    between atoms: _293  and  _294
REMARK  106  A    between atoms: _296  and  _298
REMARK  107  A    between atoms: _298  and  _299
REMARK  108  A    between atoms: _298  and  _301
REMARK  109  A    between atoms: _301  and  _302
REMARK  110  A    between atoms: _305  and  _307
REMARK  111  A    between atoms: _307  and  _308
REMARK  112  A    between atoms: _307  and  _310
REMARK  113  A    between atoms: _310  and  _311
REMARK  114  A    between atoms: _314  and  _316
REMARK  115  A    between atoms: _316  and  _317
REMARK  116  A    between atoms: _316  and  _319
REMARK  117  A    between atoms: _319  and  _320
REMARK  118  A    between atoms: _324  and  _325
REMARK  119  A    between atoms: _331  and  _332
REMARK  120  A    between atoms: _337  and  _339
REMARK  121  A    between atoms: _339  and  _340
REMARK  122  A    between atoms: _339  and  _342
REMARK  123  A    between atoms: _342  and  _343
REMARK  124  A    between atoms: _346  and  _348
REMARK  125  A    between atoms: _348  and  _349
REMARK  126  A    between atoms: _348  and  _351
REMARK  127  A    between atoms: _351  and  _352
REMARK  128  A    between atoms: _355  and  _357
REMARK  129  A    between atoms: _357  and  _358
REMARK  130  A    between atoms: _357  and  _360
REMARK  131  A    between atoms: _362  and  _364
REMARK  132  A    between atoms: _364  and  _365
REMARK  133  A    between atoms: _364  and  _367
REMARK  134  A    between atoms: _370  and  _372
REMARK  135  A    between atoms: _372  and  _373
REMARK  136  A    between atoms: _372  and  _375
REMARK  137  A    between atoms: _375  and  _376
REMARK  138  A    between atoms: _386  and  _388
REMARK  139  A    between atoms: _388  and  _389
REMARK  140  A    between atoms: _388  and  _391
REMARK  141  A    between atoms: _391  and  _392
REMARK  142  A    between atoms: _397  and  _399
REMARK  143  A    between atoms: _399  and  _400
REMARK  144  A    between atoms: _399  and  _402
REMARK  145  A    between atoms: _402  and  _403
REMARK  146  A    between atoms: _403  and  _404
REMARK  147  A    between atoms: _404  and  _405
REMARK                            x       y       z     vdW  Elec       q    Type
REMARK                         _______ _______ _______ _____ _____    ______ ____
ROOT
ATOM      1  C   UNK A   4      10.816   0.298  10.329  0.00  0.00    +0.000 C 
ATOM      2  C   UNK A   4      10.745  -0.994  11.145  0.00  0.00    +0.000 C 
ATOM      3  O   UNK A   4      10.071  -1.040  12.176  0.00  0.00    +0.000 OA
ATOM      4  N   VAL A   5      11.438  -2.007  10.656  0.00  0.00    +0.000 N 
ATOM      5  CA  VAL A   5      11.460  -3.292  11.346  0.00  0.00    +0.000 C 
ATOM      6  C   VAL A   5      12.912  -3.742  11.530  0.00  0.00    +0.000 C 
ATOM      7  N   UNK A   6      13.056  -4.719  12.420  0.00  0.00    +0.000 N 
ATOM      8  H   UNK A   6      12.246  -4.929  13.038  0.00  0.00    +0.000 HD
ATOM      9  C   UNK A   6      14.242  -5.506  12.593  0.00  0.00    +0.000 C 
ATOM     10  C   UNK A   6      14.908  -5.281  13.948  0.00  0.00    +0.000 C 
ATOM     11  C   UNK A   6      15.164  -3.840  14.222  0.00  0.00    +0.000 A 
ATOM     12  C   UNK A   6      14.427  -2.796  14.654  0.00  0.00    +0.000 A 
ATOM     13  N   UNK A   6      15.159  -1.662  14.693  0.00  0.00    +0.000 N 
ATOM     14 ZN   UNK A   6      14.390   0.159  15.254  0.00  0.00    +0.000 Zn
ATOM     15  N   UNK A   4      13.687   1.022  13.580  0.00  0.00    +0.000 N 
ATOM     16  C   UNK A   4      13.160   2.221  13.434  0.00  0.00    +0.000 A 
ATOM     17  N   UNK A   4      12.612   2.242  12.218  0.00  0.00    +0.000 NA
ATOM     18  C   UNK A   4      12.810   1.031  11.589  0.00  0.00    +0.000 A 
ATOM     19  C   UNK A   4      13.483   0.264  12.467  0.00  0.00    +0.000 A 
ATOM     20  C   UNK A   6      16.373  -1.992  14.259  0.00  0.00    +0.000 A 
ATOM     21  N   UNK A   6      16.406  -3.287  13.948  0.00  0.00    +0.000 NA
ATOM     22  O   VAL A   5      13.809  -3.257  10.860  0.00  0.00    +0.000 OA
ATOM     23  H   VAL A   5      11.972  -1.887   9.772  0.00  0.00    +0.000 HD
ATOM     24  C   UNK A   4      12.259   0.783  10.220  0.00  0.00    +0.000 C 
ENDROOT
BRANCH  14  25
ATOM     25  N   UNK A   6      12.949  -0.568  16.536  0.00  0.00    +0.000 N 
ATOM     26  C   UNK A   6      13.250  -1.468  17.430  0.00  0.00    +0.000 A 
ATOM     27  N   UNK A   6      12.133  -1.845  18.070  0.00  0.00    +0.000 NA
ATOM     28  C   UNK A   6      11.083  -1.127  17.477  0.00  0.00    +0.000 A 
ATOM     29  C   UNK A   6      11.613  -0.310  16.525  0.00  0.00    +0.000 A 
BRANCH  29  30
ATOM     30  C   UNK A   6      10.870   0.636  15.627  0.00  0.00    +0.000 C 
BRANCH  30  31
ATOM     31  C   UNK A   6       9.371   0.340  15.558  0.00  0.00    +0.000 C 
BRANCH  31  32
ATOM     32  C   UNK A   6       8.627   1.493  14.890  0.00  0.00    +0.000 C 
ATOM     33  N   UNK A   4       7.684   2.083  15.606  0.00  0.00    +0.000 N 
ATOM     34  H   UNK A   4       7.383   1.673  16.513  0.00  0.00    +0.000 HD
ATOM     35  O   UNK A   6       8.970   1.832  13.751  0.00  0.00    +0.000 OA
BRANCH  33  36
ATOM     36  C   UNK A   4       7.066   3.316  15.116  0.00  0.00    +0.000 C 
BRANCH  36  37
ATOM     37  C   UNK A   4       7.696   4.458  15.887  0.00  0.00    +0.000 C 
ATOM     38  O   UNK A   4       7.565   4.516  17.116  0.00  0.00    +0.000 OA
ATOM     39  N   VAL A   5       8.387   5.333  15.170  0.00  0.00    +0.000 N 
ATOM     40  H   VAL A   5       8.316   5.300  14.133  0.00  0.00    +0.000 HD
BRANCH  39  41
ATOM     41  CA  VAL A   5       9.242   6.339  15.786  0.00  0.00    +0.000 C 
BRANCH  41  42
ATOM     42  C   VAL A   5       8.581   7.702  15.839  0.00  0.00    +0.000 C 
ATOM     43  N   UNK A   6       8.559   8.334  16.998  0.00  0.00    +0.000 N 
ATOM     44  H   UNK A   6       9.038   7.898  17.812  0.00  0.00    +0.000 HD
ATOM     45  O   VAL A   5       8.109   8.143  14.792  0.00  0.00    +0.000 OA
BRANCH  43  46
ATOM     46  C   UNK A   6       7.892   9.618  17.187  0.00  0.00    +0.000 C 
BRANCH  46  47
ATOM     47  C   UNK A   6       8.799  10.604  17.936  0.00  0.00    +0.000 C 
ATOM     48  O   UNK A   6       9.560  10.143  18.784  0.00  0.00    +0.000 OA
ENDBRANCH  46  47
BRANCH  46  49
ATOM     49  C   UNK A   6       6.622   9.493  18.036  0.00  0.00    +0.000 C 
BRANCH  49  50
ATOM     50  C   UNK A   6       5.718   8.363  17.657  0.00  0.00    +0.000 A 
ATOM     51  N   UNK A   6       6.022   7.041  17.925  0.00  0.00    +0.000 NA
ATOM     52  C   UNK A   6       5.045   6.265  17.481  0.00  0.00    +0.000 A 
ATOM     53  N   UNK A   6       4.106   7.016  16.948  0.00  0.00    +0.000 NA
ATOM     54  C   UNK A   6       4.510   8.332  17.061  0.00  0.00    +0.000 A 
ENDBRANCH  49  50
ENDBRANCH  46  49
ENDBRANCH  43  46
ENDBRANCH  41  42
BRANCH  41  55
ATOM     55  CB  VAL A   5      10.567   6.450  14.995  0.00  0.00    +0.000 C 
ATOM     56  CG2 VAL A   5      11.500   7.442  15.647  0.00  0.00    +0.000 C 
ATOM     57  CG1 VAL A   5      11.206   5.074  14.862  0.00  0.00    +0.000 C 
ENDBRANCH  41  55
ENDBRANCH  39  41
ENDBRANCH  36  37
BRANCH  36  58
ATOM     58  C   UNK A   4       5.566   3.233  15.277  0.00  0.00    +0.000 C 
BRANCH  58  59
ATOM     59  C   UNK A   4       4.864   2.185  14.408  0.00  0.00    +0.000 C 
ATOM     60  C   UNK A   4       4.103   1.223  15.321  0.00  0.00    +0.000 C 
ATOM     61  C   UNK A   4       3.957   2.837  13.390  0.00  0.00    +0.000 C 
ENDBRANCH  58  59
ENDBRANCH  36  58
ENDBRANCH  33  36
ENDBRANCH  31  32
BRANCH  31  62
ATOM     62  N   UNK A   6       9.124  -0.892  14.826  0.00  0.00    +0.000 N 
ATOM     63  C   LEU A   2       8.501  -1.954  15.314  0.00  0.00    +0.000 C 
ATOM     64  O   LEU A   2       8.089  -2.026  16.471  0.00  0.00    +0.000 OA
ATOM     65  H   UNK A   6       9.463  -0.943  13.844  0.00  0.00    +0.000 HD
BRANCH  63  66
ATOM     66  CA  LEU A   2       8.284  -3.124  14.366  0.00  0.00    +0.000 C 
BRANCH  66  67
ATOM     67  N   LEU A   2       8.659  -4.370  15.028  0.00  0.00    +0.000 N 
ATOM     68  H   LEU A   2       7.947  -4.829  15.632  0.00  0.00    +0.000 HD
ATOM     69  C   GLU A   1       9.840  -4.959  14.916  0.00  0.00    +0.000 C 
ATOM     70  O   GLU A   1      10.737  -4.550  14.195  0.00  0.00    +0.000 OA
BRANCH  69  71
ATOM     71  CA  GLU A   1      10.060  -6.210  15.767  0.00  0.00    +0.000 C 
BRANCH  71  72
ATOM     72  N   GLU A   1      10.540  -7.263  14.879  0.00  0.00    +0.000 NA
ATOM     73  H   GLU A   1      11.151  -7.010  14.076  0.00  0.00    +0.000 HD
ENDBRANCH  71  72
BRANCH  71  74
ATOM     74  CB  GLU A   1      11.040  -5.918  16.898  0.00  0.00    +0.000 C 
BRANCH  74  75
ATOM     75  CG  GLU A   1      10.506  -4.988  17.995  0.00  0.00    +0.000 C 
BRANCH  75  76
ATOM     76  CD  GLU A   1      11.468  -4.911  19.174  0.00  0.00    +0.000 C 
ATOM     77  OE2 GLU A   1      11.537  -3.803  19.763  0.00  0.00    +0.000 OA
ATOM     78  OE1 GLU A   1      12.143  -5.904  19.504  0.00  0.00    +0.000 OA
ENDBRANCH  75  76
ENDBRANCH  74  75
ENDBRANCH  71  74
ENDBRANCH  69  71
ENDBRANCH  66  67
BRANCH  66  79
ATOM     79  CB  LEU A   2       6.795  -3.207  14.016  0.00  0.00    +0.000 C 
BRANCH  79  80
ATOM     80  CG  LEU A   2       6.012  -1.960  13.636  0.00  0.00    +0.000 C 
ATOM     81  CD2 LEU A   2       4.541  -2.339  13.377  0.00  0.00    +0.000 C 
ATOM     82  CD1 LEU A   2       6.597  -1.266  12.424  0.00  0.00    +0.000 C 
ENDBRANCH  79  80
ENDBRANCH  66  79
ENDBRANCH  63  66
ENDBRANCH  31  62
ENDBRANCH  30  31
ENDBRANCH  29  30
ENDBRANCH  14  25
BRANCH   1  84
ATOM     83  C   UNK A   3       9.425   2.282  10.274  0.00  0.00    +0.000 C 
ATOM     84  N   UNK A   4       9.926   1.253  10.939  0.00  0.00    +0.000 N 
ATOM     85  H   UNK A   4       9.668   1.129  11.939  0.00  0.00    +0.000 HD
ATOM     86  O   UNK A   3       9.594   2.462   9.067  0.00  0.00    +0.000 OA
BRANCH  83  87
ATOM     87  C   UNK A   3       8.461   3.164  11.062  0.00  0.00    +0.000 C 
BRANCH  87  90
ATOM     88  C   LEU A   2       8.470   5.559  11.104  0.00  0.00    +0.000 C 
ATOM     89  O   LEU A   2       8.424   5.606  12.331  0.00  0.00    +0.000 OA
ATOM     90  N   UNK A   3       8.327   4.458  10.379  0.00  0.00    +0.000 N 
ATOM     91  H   UNK A   3       8.126   4.509   9.360  0.00  0.00    +0.000 HD
BRANCH  88  92
ATOM     92  CA  LEU A   2       8.756   6.847  10.344  0.00  0.00    +0.000 C 
BRANCH  92  94
ATOM     93  C   GLU A   1       8.367   9.227  10.665  0.00  0.00    +0.000 C 
ATOM     94  N   LEU A   2       8.484   7.991  11.173  0.00  0.00    +0.000 N 
ATOM     95  H   LEU A   2       8.375   7.855  12.198  0.00  0.00    +0.000 HD
ATOM     96  O   GLU A   1       8.498   9.373   9.439  0.00  0.00    +0.000 OA
BRANCH  93  97
ATOM     97  CA  GLU A   1       8.050  10.393  11.595  0.00  0.00    +0.000 C 
BRANCH  97  98
ATOM     98  CB  GLU A   1       9.365  11.024  12.097  0.00  0.00    +0.000 C 
ATOM     99  CG2 GLU A   1      10.090  10.157  13.120  0.00  0.00    +0.000 C 
BRANCH  98 100
ATOM    100  CG1 GLU A   1      10.331  11.388  10.959  0.00  0.00    +0.000 C 
ATOM    101  CD1 GLU A   1      11.518  12.230  11.443  0.00  0.00    +0.000 C 
ENDBRANCH  98 100
ENDBRANCH  97  98
BRANCH  97 102
ATOM    102  N   GLU A   1       7.179  10.006  12.694  0.00  0.00    +0.000 NA
ATOM    103  H   GLU A   1       7.539   9.331  13.399  0.00  0.00    +0.000 HD
ENDBRANCH  97 102
ENDBRANCH  93  97
ENDBRANCH  92  94
BRANCH  92 104
ATOM    104  CB  LEU A   2      10.205   6.794   9.850  0.00  0.00    +0.000 C 
BRANCH 104 105
ATOM    105  CG  LEU A   2      11.281   6.923  10.918  0.00  0.00    +0.000 C 
BRANCH 105 106
ATOM    106  CD  LEU A   2      12.082   5.692  11.175  0.00  0.00    +0.000 C 
ATOM    107  NE2 LEU A   2      13.381   5.875  11.440  0.00  0.00    +0.000 N 
ATOM    108 HE21 LEU A   2      13.988   5.058  11.656  0.00  0.00    +0.000 HD
ATOM    109 HE22 LEU A   2      13.784   6.834  11.429  0.00  0.00    +0.000 HD
ATOM    110  OE1 LEU A   2      11.554   4.599  11.172  0.00  0.00    +0.000 OA
ENDBRANCH 105 106
ENDBRANCH 104 105
ENDBRANCH  92 104
ENDBRANCH  88  92
ENDBRANCH  87  90
BRANCH  87 111
ATOM    111  C   UNK A   3       7.150   2.441  11.226  0.00  0.00    +0.000 C 
BRANCH 111 112
ATOM    112  C   UNK A   3       6.363   1.935  10.036  0.00  0.00    +0.000 A 
ATOM    113  C   UNK A   3       5.229   2.622   9.605  0.00  0.00    +0.000 A 
ATOM    114  C   UNK A   3       4.501   2.198   8.507  0.00  0.00    +0.000 A 
ATOM    115  C   UNK A   3       4.875   1.054   7.816  0.00  0.00    +0.000 A 
ATOM    116  C   UNK A   3       6.003   0.356   8.232  0.00  0.00    +0.000 A 
ATOM    117  C   UNK A   3       6.694   0.790   9.326  0.00  0.00    +0.000 A 
ENDBRANCH 111 112
ENDBRANCH  87 111
ENDBRANCH  83  87
ENDBRANCH   1  84
BRANCH   9 118
ATOM    118  C   UNK A   6      13.846  -6.971  12.477  0.00  0.00    +0.000 C 
ATOM    119  O   UNK A   6      12.807  -7.326  13.043  0.00  0.00    +0.000 OA
ENDBRANCH   9 118
BRANCH   5 120
ATOM    120  CB  VAL A   5      10.741  -4.387  10.577  0.00  0.00    +0.000 C 
BRANCH 120 121
ATOM    121  CG  VAL A   5       9.302  -4.131  10.192  0.00  0.00    +0.000 A 
ATOM    122  CD2 VAL A   5       8.256  -4.739  10.920  0.00  0.00    +0.000 A 
ATOM    123  CE2 VAL A   5       6.938  -4.535  10.561  0.00  0.00    +0.000 A 
ATOM    124  CZ  VAL A   5       6.654  -3.719   9.480  0.00  0.00    +0.000 A 
ATOM    125  CE1 VAL A   5       7.670  -3.113   8.782  0.00  0.00    +0.000 A 
ATOM    126  CD1 VAL A   5       8.997  -3.314   9.130  0.00  0.00    +0.000 A 
ENDBRANCH 120 121
ENDBRANCH   5 120
TORSDOF 42
REMARK  Name = ../refined-set-2016/1zfq/1zfq_pocket.pdb
REMARK  147 active torsions:
REMARK  status: ('A' for Active; 'I' for Inactive)
REMARK    1  A    between atoms: _1  and  _3
REMARK    2  A    between atoms: _3  and  _4
REMARK    3  A    between atoms: _3  and  _6
REMARK    4  A    between atoms: _6  and  _7
REMARK    5  A    between atoms: _17  and  _19
REMARK    6  A    between atoms: _19  and  _20
REMARK    7  A    between atoms: _19  and  _22
REMARK    8  A    between atoms: _22  and  _23
REMARK    9  A    between atoms: _28  and  _29
REMARK   10  A    between atoms: _31  and  _33
REMARK   11  A    between atoms: _33  and  _34
REMARK   12  A    between atoms: _33  and  _36
REMARK   13  A    between atoms: _36  and  _37
REMARK   14  A    between atoms: _40  and  _41
REMARK   15  A    between atoms: _46  and  _48
REMARK   16  A    between atoms: _48  and  _49
REMARK   17  A    between atoms: _48  and  _51
REMARK   18  A    between atoms: _51  and  _52
REMARK   19  A    between atoms: _57  and  _59
REMARK   20  A    between atoms: _59  and  _60
REMARK   21  A    between atoms: _59  and  _62
REMARK   22  A    between atoms: _62  and  _63
REMARK   23  A    between atoms: _68  and  _70
REMARK   24  A    between atoms: _70  and  _71
REMARK   25  A    between atoms: _74  and  _76
REMARK   26  A    between atoms: _76  and  _77
REMARK   27  A    between atoms: _76  and  _79
REMARK   28  A    between atoms: _79  and  _80
REMARK   29  A    between atoms: _85  and  _87
REMARK   30  A    between atoms: _87  and  _88
REMARK   31  A    between atoms: _87  and  _90
REMARK   32  A    between atoms: _90  and  _91
REMARK   33  A    between atoms: _94  and  _96
REMARK   34  A    between atoms: _96  and  _97
REMARK   35  A    between atoms: _96  and  _99
REMARK   36  A    between atoms: _99  and  _100
REMARK   37  A    between atoms: _100  and  _101
REMARK   38  A    between atoms: _106  and  _108
REMARK   39  A    between atoms: _108  and  _109
REMARK   40  A    between atoms: _108  and  _111
REMARK   41  A    between atoms: _111  and  _112
REMARK   42  A    between atoms: _118  and  _120
REMARK   43  A    between atoms: _131  and  _134
REMARK   44  A    between atoms: _134  and  _135
REMARK   45  A    between atoms: _143  and  _144
REMARK   46  A    between atoms: _152  and  _154
REMARK   47  A    between atoms: _154  and  _155
REMARK   48  A    between atoms: _154  and  _157
REMARK   49  A    between atoms: _157  and  _158
REMARK   50  A    between atoms: _158  and  _159
REMARK   51  A    between atoms: _162  and  _164
REMARK   52  A    between atoms: _164  and  _165
REMARK   53  A    between atoms: _164  and  _167
REMARK   54  A    between atoms: _167  and  _168
REMARK   55  A    between atoms: _173  and  _175
REMARK   56  A    between atoms: _175  and  _176
REMARK   57  A    between atoms: _175  and  _178
REMARK   58  A    between atoms: _178  and  _179
REMARK   59  A    between atoms: _179  and  _180
REMARK   60  A    between atoms: _183  and  _185
REMARK   61  A    between atoms: _185  and  _186
REMARK   62  A    between atoms: _185  and  _188
REMARK   63  A    between atoms: _188  and  _189
REMARK   64  A    between atoms: _192  and  _194
REMARK   65  A    between atoms: _194  and  _195
REMARK   66  A    between atoms: _194  and  _197
REMARK   67  A    between atoms: _197  and  _198
REMARK   68  A    between atoms: _199  and  ZN_414
REMARK   69  A    between atoms: _203  and  _205
REMARK   70  A    between atoms: _205  and  _206
REMARK   71  A    between atoms: _205  and  _208
REMARK   72  A    between atoms: _208  and  _209
REMARK   73  A    between atoms: _212  and  _214
REMARK   74  A    between atoms: _214  and  _215
REMARK   75  A    between atoms: _214  and  _217
REMARK   76  A    between atoms: _220  and  _222
REMARK   77  A    between atoms: _222  and  _223
REMARK   78  A    between atoms: _222  and  _225
REMARK   79  A    between atoms: _225  and  _226
REMARK   80  A    between atoms: _231  and  _233
REMARK   81  A    between atoms: _233  and  _234
REMARK   82  A    between atoms: _233  and  _236
REMARK   83  A    between atoms: _236  and  _237
REMARK   84  A    between atoms: _243  and  _245
REMARK   85  A    between atoms: _245  and  _246
REMARK   86  A    between atoms: _245  and  _248
REMARK   87  A    between atoms: _251  and  _253
REMARK   88  A    between atoms: _253  and  _254
REMARK   89  A    between atoms: _253  and  _256
REMARK   90  A    between atoms: _256  and  _257
REMARK   91  A    between atoms: _260  and  _262
REMARK   92  A    between atoms: _262  and  _263
REMARK   93  A    between atoms: _266  and  _268
REMARK   94  A    between atoms: _268  and  _269
REMARK   95  A    between atoms: _268  and  _271
REMARK   96  A    between atoms: _274  and  _276
REMARK   97  A    between atoms: _276  and  _277
REMARK   98  A    between atoms: _276  and  _279
REMARK   99  A    between atoms: _279  and  _280
REMARK  100  A    between atoms: _283  and  _285
REMARK  101  A    between atoms: _285  and  _286
REMARK  102  A    between atoms: _288  and  _290
REMARK  103  A    between atoms: _290  and  _291
REMARK  104  A    between atoms: _290  and  _293
REMARK  105  A    between atoms: _293  and  _294
REMARK  106  A    between atoms: _296  and  _298
REMARK  107  A    between atoms: _298  and  _299
REMARK  108  A    between atoms: _298  and  _301
REMARK  109  A    between atoms: _301  and  _302
REMARK  110  A    between atoms: _305  and  _307
REMARK  111  A    between atoms: _307  and  _308
REMARK  112  A    between atoms: _307  and  _310
REMARK  113  A    between atoms: _310  and  _311
REMARK  114  A    between atoms: _314  and  _316
REMARK  115  A    between atoms: _316  and  _317
REMARK  116  A    between atoms: _316  and  _319
REMARK  117  A    between atoms: _319  and  _320
REMARK  118  A    between atoms: _324  and  _325
REMARK  119  A    between atoms: _331  and  _332
REMARK  120  A    between atoms: _337  and  _339
REMARK  121  A    between atoms: _339  and  _340
REMARK  122  A    between atoms: _339  and  _342
REMARK  123  A    between atoms: _342  and  _343
REMARK  124  A    between atoms: _346  and  _348
REMARK  125  A    between atoms: _348  and  _349
REMARK  126  A    between atoms: _348  and  _351
REMARK  127  A    between atoms: _351  and  _352
REMARK  128  A    between atoms: _355  and  _357
REMARK  129  A    between atoms: _357  and  _358
REMARK  130  A    between atoms: _357  and  _360
REMARK  131  A    between atoms: _362  and  _364
REMARK  132  A    between atoms: _364  and  _365
REMARK  133  A    between atoms: _364  and  _367
REMARK  134  A    between atoms: _370  and  _372
REMARK  135  A    between atoms: _372  and  _373
REMARK  136  A    between atoms: _372  and  _375
REMARK  137  A    between atoms: _375  and  _376
REMARK  138  A    between atoms: _386  and  _388
REMARK  139  A    between atoms: _388  and  _389
REMARK  140  A    between atoms: _388  and  _391
REMARK  141  A    between atoms: _391  and  _392
REMARK  142  A    between atoms: _397  and  _399
REMARK  143  A    between atoms: _399  and  _400
REMARK  144  A    between atoms: _399  and  _402
REMARK  145  A    between atoms: _402  and  _403
REMARK  146  A    between atoms: _403  and  _404
REMARK  147  A    between atoms: _404  and  _405
REMARK                            x       y       z     vdW  Elec       q    Type
REMARK                         _______ _______ _______ _____ _____    ______ ____
ROOT
ATOM      1  C   GLU A   1      15.264  -6.641  21.109  0.00  0.00    +0.238 C 
ATOM      2  O   GLU A   1      16.041  -7.196  21.874  0.00  0.00    -0.274 OA
ATOM      3  N   HIS A   2      14.084  -6.180  21.536  0.00  0.00    -0.298 N 
ATOM      4  H   HIS A   2      13.505  -5.572  20.923  0.00  0.00    +0.150 HD
ENDROOT
BRANCH   1   5
ATOM      5  CA  GLU A   1      15.555  -6.474  19.629  0.00  0.00    +0.145 C 
BRANCH   5   6
ATOM      6  N   GLU A   1      14.572  -7.195  18.840  0.00  0.00    -0.238 NA
ATOM      7  H   GLU A   1      13.692  -6.699  18.591  0.00  0.00    +0.142 HD
ENDBRANCH   5   6
BRANCH   5   8
ATOM      8  CB  GLU A   1      15.563  -5.000  19.201  0.00  0.00    +0.038 C 
BRANCH   8   9
ATOM      9  CG  GLU A   1      16.060  -4.926  17.767  0.00  0.00    +0.116 C 
BRANCH   9  10
ATOM     10  CD  GLU A   1      16.764  -3.638  17.416  0.00  0.00    +0.365 C 
ATOM     11  OE2 GLU A   1      16.175  -2.564  17.658  0.00  0.00    -0.246 OA
ATOM     12  OE1 GLU A   1      17.909  -3.638  16.902  0.00  0.00    -0.246 OA
ENDBRANCH   9  10
ENDBRANCH   8   9
ENDBRANCH   5   8
ENDBRANCH   1   5
BRANCH   3  13
ATOM     13  CA  HIS A   2      13.622  -6.535  22.856  0.00  0.00    +0.143 C 
BRANCH  13  14
ATOM     14  C   HIS A   2      13.346  -8.038  22.876  0.00  0.00    +0.227 C 
ATOM     15  O   HIS A   2      13.009  -8.609  21.852  0.00  0.00    -0.286 OA
ENDBRANCH  13  14
BRANCH  13  16
ATOM     16  CB  HIS A   2      12.352  -5.733  23.246  0.00  0.00    +0.075 C 
BRANCH  16  17
ATOM     17  CG  HIS A   2      12.699  -4.279  23.360  0.00  0.00    +0.082 A 
ATOM     18  CD2 HIS A   2      13.194  -3.571  24.405  0.00  0.00    +0.115 A 
ATOM     19  NE2 HIS A   2      13.367  -2.266  23.992  0.00  0.00    -0.221 NA
ATOM     20  CE1 HIS A   2      13.014  -2.222  22.720  0.00  0.00    +0.199 A 
ATOM     21  ND1 HIS A   2      12.605  -3.414  22.281  0.00  0.00    -0.227 NA
ENDBRANCH  16  17
ENDBRANCH  13  16
ENDBRANCH   3  13
TORSDOF 9
REMARK  Name = ../refined-set-2016/1zfq/1zfq_pocket.pdb
REMARK  147 active torsions:
REMARK  status: ('A' for Active; 'I' for Inactive)
REMARK    1  A    between atoms: _1  and  _3
REMARK    2  A    between atoms: _3  and  _4
REMARK    3  A    between atoms: _3  and  _6
REMARK    4  A    between atoms: _6  and  _7
REMARK    5  A    between atoms: _17  and  _19
REMARK    6  A    between atoms: _19  and  _20
REMARK    7  A    between atoms: _19  and  _22
REMARK    8  A    between atoms: _22  and  _23
REMARK    9  A    between atoms: _28  and  _29
REMARK   10  A    between atoms: _31  and  _33
REMARK   11  A    between atoms: _33  and  _34
REMARK   12  A    between atoms: _33  and  _36
REMARK   13  A    between atoms: _36  and  _37
REMARK   14  A    between atoms: _40  and  _41
REMARK   15  A    between atoms: _46  and  _48
REMARK   16  A    between atoms: _48  and  _49
REMARK   17  A    between atoms: _48  and  _51
REMARK   18  A    between atoms: _51  and  _52
REMARK   19  A    between atoms: _57  and  _59
REMARK   20  A    between atoms: _59  and  _60
REMARK   21  A    between atoms: _59  and  _62
REMARK   22  A    between atoms: _62  and  _63
REMARK   23  A    between atoms: _68  and  _70
REMARK   24  A    between atoms: _70  and  _71
REMARK   25  A    between atoms: _74  and  _76
REMARK   26  A    between atoms: _76  and  _77
REMARK   27  A    between atoms: _76  and  _79
REMARK   28  A    between atoms: _79  and  _80
REMARK   29  A    between atoms: _85  and  _87
REMARK   30  A    between atoms: _87  and  _88
REMARK   31  A    between atoms: _87  and  _90
REMARK   32  A    between atoms: _90  and  _91
REMARK   33  A    between atoms: _94  and  _96
REMARK   34  A    between atoms: _96  and  _97
REMARK   35  A    between atoms: _96  and  _99
REMARK   36  A    between atoms: _99  and  _100
REMARK   37  A    between atoms: _100  and  _101
REMARK   38  A    between atoms: _106  and  _108
REMARK   39  A    between atoms: _108  and  _109
REMARK   40  A    between atoms: _108  and  _111
REMARK   41  A    between atoms: _111  and  _112
REMARK   42  A    between atoms: _118  and  _120
REMARK   43  A    between atoms: _131  and  _134
REMARK   44  A    between atoms: _134  and  _135
REMARK   45  A    between atoms: _143  and  _144
REMARK   46  A    between atoms: _152  and  _154
REMARK   47  A    between atoms: _154  and  _155
REMARK   48  A    between atoms: _154  and  _157
REMARK   49  A    between atoms: _157  and  _158
REMARK   50  A    between atoms: _158  and  _159
REMARK   51  A    between atoms: _162  and  _164
REMARK   52  A    between atoms: _164  and  _165
REMARK   53  A    between atoms: _164  and  _167
REMARK   54  A    between atoms: _167  and  _168
REMARK   55  A    between atoms: _173  and  _175
REMARK   56  A    between atoms: _175  and  _176
REMARK   57  A    between atoms: _175  and  _178
REMARK   58  A    between atoms: _178  and  _179
REMARK   59  A    between atoms: _179  and  _180
REMARK   60  A    between atoms: _183  and  _185
REMARK   61  A    between atoms: _185  and  _186
REMARK   62  A    between atoms: _185  and  _188
REMARK   63  A    between atoms: _188  and  _189
REMARK   64  A    between atoms: _192  and  _194
REMARK   65  A    between atoms: _194  and  _195
REMARK   66  A    between atoms: _194  and  _197
REMARK   67  A    between atoms: _197  and  _198
REMARK   68  A    between atoms: _199  and  ZN_414
REMARK   69  A    between atoms: _203  and  _205
REMARK   70  A    between atoms: _205  and  _206
REMARK   71  A    between atoms: _205  and  _208
REMARK   72  A    between atoms: _208  and  _209
REMARK   73  A    between atoms: _212  and  _214
REMARK   74  A    between atoms: _214  and  _215
REMARK   75  A    between atoms: _214  and  _217
REMARK   76  A    between atoms: _220  and  _222
REMARK   77  A    between atoms: _222  and  _223
REMARK   78  A    between atoms: _222  and  _225
REMARK   79  A    between atoms: _225  and  _226
REMARK   80  A    between atoms: _231  and  _233
REMARK   81  A    between atoms: _233  and  _234
REMARK   82  A    between atoms: _233  and  _236
REMARK   83  A    between atoms: _236  and  _237
REMARK   84  A    between atoms: _243  and  _245
REMARK   85  A    between atoms: _245  and  _246
REMARK   86  A    between atoms: _245  and  _248
REMARK   87  A    between atoms: _251  and  _253
REMARK   88  A    between atoms: _253  and  _254
REMARK   89  A    between atoms: _253  and  _256
REMARK   90  A    between atoms: _256  and  _257
REMARK   91  A    between atoms: _260  and  _262
REMARK   92  A    between atoms: _262  and  _263
REMARK   93  A    between atoms: _266  and  _268
REMARK   94  A    between atoms: _268  and  _269
REMARK   95  A    between atoms: _268  and  _271
REMARK   96  A    between atoms: _274  and  _276
REMARK   97  A    between atoms: _276  and  _277
REMARK   98  A    between atoms: _276  and  _279
REMARK   99  A    between atoms: _279  and  _280
REMARK  100  A    between atoms: _283  and  _285
REMARK  101  A    between atoms: _285  and  _286
REMARK  102  A    between atoms: _288  and  _290
REMARK  103  A    between atoms: _290  and  _291
REMARK  104  A    between atoms: _290  and  _293
REMARK  105  A    between atoms: _293  and  _294
REMARK  106  A    between atoms: _296  and  _298
REMARK  107  A    between atoms: _298  and  _299
REMARK  108  A    between atoms: _298  and  _301
REMARK  109  A    between atoms: _301  and  _302
REMARK  110  A    between atoms: _305  and  _307
REMARK  111  A    between atoms: _307  and  _308
REMARK  112  A    between atoms: _307  and  _310
REMARK  113  A    between atoms: _310  and  _311
REMARK  114  A    between atoms: _314  and  _316
REMARK  115  A    between atoms: _316  and  _317
REMARK  116  A    between atoms: _316  and  _319
REMARK  117  A    between atoms: _319  and  _320
REMARK  118  A    between atoms: _324  and  _325
REMARK  119  A    between atoms: _331  and  _332
REMARK  120  A    between atoms: _337  and  _339
REMARK  121  A    between atoms: _339  and  _340
REMARK  122  A    between atoms: _339  and  _342
REMARK  123  A    between atoms: _342  and  _343
REMARK  124  A    between atoms: _346  and  _348
REMARK  125  A    between atoms: _348  and  _349
REMARK  126  A    between atoms: _348  and  _351
REMARK  127  A    between atoms: _351  and  _352
REMARK  128  A    between atoms: _355  and  _357
REMARK  129  A    between atoms: _357  and  _358
REMARK  130  A    between atoms: _357  and  _360
REMARK  131  A    between atoms: _362  and  _364
REMARK  132  A    between atoms: _364  and  _365
REMARK  133  A    between atoms: _364  and  _367
REMARK  134  A    between atoms: _370  and  _372
REMARK  135  A    between atoms: _372  and  _373
REMARK  136  A    between atoms: _372  and  _375
REMARK  137  A    between atoms: _375  and  _376
REMARK  138  A    between atoms: _386  and  _388
REMARK  139  A    between atoms: _388  and  _389
REMARK  140  A    between atoms: _388  and  _391
REMARK  141  A    between atoms: _391  and  _392
REMARK  142  A    between atoms: _397  and  _399
REMARK  143  A    between atoms: _399  and  _400
REMARK  144  A    between atoms: _399  and  _402
REMARK  145  A    between atoms: _402  and  _403
REMARK  146  A    between atoms: _403  and  _404
REMARK  147  A    between atoms: _404  and  _405
REMARK                            x       y       z     vdW  Elec       q    Type
REMARK                         _______ _______ _______ _____ _____    ______ ____
ROOT
ATOM      1  CB  PHE A   1      13.533  14.496  14.064  0.00  0.00    +0.051 C 
ENDROOT
BRANCH   1   2
ATOM      2  CG  PHE A   1      14.163  13.158  14.400  0.00  0.00    -0.020 A 
ATOM      3  CD2 PHE A   1      13.369  12.152  14.915  0.00  0.00    -0.004 A 
ATOM      4  CE2 PHE A   1      13.931  10.926  15.205  0.00  0.00    -0.000 A 
ATOM      5  CZ  PHE A   1      15.272  10.667  15.017  0.00  0.00    -0.000 A 
ATOM      6  CE1 PHE A   1      16.069  11.658  14.520  0.00  0.00    -0.000 A 
ATOM      7  CD1 PHE A   1      15.502  12.873  14.197  0.00  0.00    -0.004 A 
ENDBRANCH   1   2
BRANCH   1   8
ATOM      8  CA  PHE A   1      13.635  15.494  15.243  0.00  0.00    +0.137 C 
BRANCH   8   9
ATOM      9  N   PHE A   1      12.978  16.720  14.791  0.00  0.00    -0.239 NA
ATOM     10  H   PHE A   1      12.625  16.790  13.815  0.00  0.00    +0.142 HD
ENDBRANCH   8   9
BRANCH   8  11
ATOM     11  C   PHE A   1      15.048  15.754  15.698  0.00  0.00    +0.224 C 
ATOM     12  O   PHE A   1      15.521  15.170  16.679  0.00  0.00    -0.287 OA
ENDBRANCH   8  11
ENDBRANCH   1   8
TORSDOF 4
REMARK  Name = ../refined-set-2016/1zfq/1zfq_pocket.pdb
REMARK  147 active torsions:
REMARK  status: ('A' for Active; 'I' for Inactive)
REMARK    1  A    between atoms: _1  and  _3
REMARK    2  A    between atoms: _3  and  _4
REMARK    3  A    between atoms: _3  and  _6
REMARK    4  A    between atoms: _6  and  _7
REMARK    5  A    between atoms: _17  and  _19
REMARK    6  A    between atoms: _19  and  _20
REMARK    7  A    between atoms: _19  and  _22
REMARK    8  A    between atoms: _22  and  _23
REMARK    9  A    between atoms: _28  and  _29
REMARK   10  A    between atoms: _31  and  _33
REMARK   11  A    between atoms: _33  and  _34
REMARK   12  A    between atoms: _33  and  _36
REMARK   13  A    between atoms: _36  and  _37
REMARK   14  A    between atoms: _40  and  _41
REMARK   15  A    between atoms: _46  and  _48
REMARK   16  A    between atoms: _48  and  _49
REMARK   17  A    between atoms: _48  and  _51
REMARK   18  A    between atoms: _51  and  _52
REMARK   19  A    between atoms: _57  and  _59
REMARK   20  A    between atoms: _59  and  _60
REMARK   21  A    between atoms: _59  and  _62
REMARK   22  A    between atoms: _62  and  _63
REMARK   23  A    between atoms: _68  and  _70
REMARK   24  A    between atoms: _70  and  _71
REMARK   25  A    between atoms: _74  and  _76
REMARK   26  A    between atoms: _76  and  _77
REMARK   27  A    between atoms: _76  and  _79
REMARK   28  A    between atoms: _79  and  _80
REMARK   29  A    between atoms: _85  and  _87
REMARK   30  A    between atoms: _87  and  _88
REMARK   31  A    between atoms: _87  and  _90
REMARK   32  A    between atoms: _90  and  _91
REMARK   33  A    between atoms: _94  and  _96
REMARK   34  A    between atoms: _96  and  _97
REMARK   35  A    between atoms: _96  and  _99
REMARK   36  A    between atoms: _99  and  _100
REMARK   37  A    between atoms: _100  and  _101
REMARK   38  A    between atoms: _106  and  _108
REMARK   39  A    between atoms: _108  and  _109
REMARK   40  A    between atoms: _108  and  _111
REMARK   41  A    between atoms: _111  and  _112
REMARK   42  A    between atoms: _118  and  _120
REMARK   43  A    between atoms: _131  and  _134
REMARK   44  A    between atoms: _134  and  _135
REMARK   45  A    between atoms: _143  and  _144
REMARK   46  A    between atoms: _152  and  _154
REMARK   47  A    between atoms: _154  and  _155
REMARK   48  A    between atoms: _154  and  _157
REMARK   49  A    between atoms: _157  and  _158
REMARK   50  A    between atoms: _158  and  _159
REMARK   51  A    between atoms: _162  and  _164
REMARK   52  A    between atoms: _164  and  _165
REMARK   53  A    between atoms: _164  and  _167
REMARK   54  A    between atoms: _167  and  _168
REMARK   55  A    between atoms: _173  and  _175
REMARK   56  A    between atoms: _175  and  _176
REMARK   57  A    between atoms: _175  and  _178
REMARK   58  A    between atoms: _178  and  _179
REMARK   59  A    between atoms: _179  and  _180
REMARK   60  A    between atoms: _183  and  _185
REMARK   61  A    between atoms: _185  and  _186
REMARK   62  A    between atoms: _185  and  _188
REMARK   63  A    between atoms: _188  and  _189
REMARK   64  A    between atoms: _192  and  _194
REMARK   65  A    between atoms: _194  and  _195
REMARK   66  A    between atoms: _194  and  _197
REMARK   67  A    between atoms: _197  and  _198
REMARK   68  A    between atoms: _199  and  ZN_414
REMARK   69  A    between atoms: _203  and  _205
REMARK   70  A    between atoms: _205  and  _206
REMARK   71  A    between atoms: _205  and  _208
REMARK   72  A    between atoms: _208  and  _209
REMARK   73  A    between atoms: _212  and  _214
REMARK   74  A    between atoms: _214  and  _215
REMARK   75  A    between atoms: _214  and  _217
REMARK   76  A    between atoms: _220  and  _222
REMARK   77  A    between atoms: _222  and  _223
REMARK   78  A    between atoms: _222  and  _225
REMARK   79  A    between atoms: _225  and  _226
REMARK   80  A    between atoms: _231  and  _233
REMARK   81  A    between atoms: _233  and  _234
REMARK   82  A    between atoms: _233  and  _236
REMARK   83  A    between atoms: _236  and  _237
REMARK   84  A    between atoms: _243  and  _245
REMARK   85  A    between atoms: _245  and  _246
REMARK   86  A    between atoms: _245  and  _248
REMARK   87  A    between atoms: _251  and  _253
REMARK   88  A    between atoms: _253  and  _254
REMARK   89  A    between atoms: _253  and  _256
REMARK   90  A    between atoms: _256  and  _257
REMARK   91  A    between atoms: _260  and  _262
REMARK   92  A    between atoms: _262  and  _263
REMARK   93  A    between atoms: _266  and  _268
REMARK   94  A    between atoms: _268  and  _269
REMARK   95  A    between atoms: _268  and  _271
REMARK   96  A    between atoms: _274  and  _276
REMARK   97  A    between atoms: _276  and  _277
REMARK   98  A    between atoms: _276  and  _279
REMARK   99  A    between atoms: _279  and  _280
REMARK  100  A    between atoms: _283  and  _285
REMARK  101  A    between atoms: _285  and  _286
REMARK  102  A    between atoms: _288  and  _290
REMARK  103  A    between atoms: _290  and  _291
REMARK  104  A    between atoms: _290  and  _293
REMARK  105  A    between atoms: _293  and  _294
REMARK  106  A    between atoms: _296  and  _298
REMARK  107  A    between atoms: _298  and  _299
REMARK  108  A    between atoms: _298  and  _301
REMARK  109  A    between atoms: _301  and  _302
REMARK  110  A    between atoms: _305  and  _307
REMARK  111  A    between atoms: _307  and  _308
REMARK  112  A    between atoms: _307  and  _310
REMARK  113  A    between atoms: _310  and  _311
REMARK  114  A    between atoms: _314  and  _316
REMARK  115  A    between atoms: _316  and  _317
REMARK  116  A    between atoms: _316  and  _319
REMARK  117  A    between atoms: _319  and  _320
REMARK  118  A    between atoms: _324  and  _325
REMARK  119  A    between atoms: _331  and  _332
REMARK  120  A    between atoms: _337  and  _339
REMARK  121  A    between atoms: _339  and  _340
REMARK  122  A    between atoms: _339  and  _342
REMARK  123  A    between atoms: _342  and  _343
REMARK  124  A    between atoms: _346  and  _348
REMARK  125  A    between atoms: _348  and  _349
REMARK  126  A    between atoms: _348  and  _351
REMARK  127  A    between atoms: _351  and  _352
REMARK  128  A    between atoms: _355  and  _357
REMARK  129  A    between atoms: _357  and  _358
REMARK  130  A    between atoms: _357  and  _360
REMARK  131  A    between atoms: _362  and  _364
REMARK  132  A    between atoms: _364  and  _365
REMARK  133  A    between atoms: _364  and  _367
REMARK  134  A    between atoms: _370  and  _372
REMARK  135  A    between atoms: _372  and  _373
REMARK  136  A    between atoms: _372  and  _375
REMARK  137  A    between atoms: _375  and  _376
REMARK  138  A    between atoms: _386  and  _388
REMARK  139  A    between atoms: _388  and  _389
REMARK  140  A    between atoms: _388  and  _391
REMARK  141  A    between atoms: _391  and  _392
REMARK  142  A    between atoms: _397  and  _399
REMARK  143  A    between atoms: _399  and  _400
REMARK  144  A    between atoms: _399  and  _402
REMARK  145  A    between atoms: _402  and  _403
REMARK  146  A    between atoms: _403  and  _404
REMARK  147  A    between atoms: _404  and  _405
REMARK                            x       y       z     vdW  Elec       q    Type
REMARK                         _______ _______ _______ _____ _____    ______ ____
ROOT
ATOM      1  CA  VAL A   1      17.467  13.765  19.952  0.00  0.00    +0.133 C 
ENDROOT
BRANCH   1   2
ATOM      2  CB  VAL A   1      17.934  12.936  18.743  0.00  0.00    +0.023 C 
ATOM      3  CG2 VAL A   1      16.779  12.222  18.045  0.00  0.00    +0.002 C 
ATOM      4  CG1 VAL A   1      18.690  13.809  17.754  0.00  0.00    +0.002 C 
ENDBRANCH   1   2
BRANCH   1   5
ATOM      5  N   VAL A   1      16.464  14.757  19.524  0.00  0.00    -0.239 NA
ATOM      6  H   VAL A   1      16.466  15.131  18.553  0.00  0.00    +0.142 HD
ENDBRANCH   1   5
BRANCH   1   7
ATOM      7  C   VAL A   1      18.641  14.401  20.669  0.00  0.00    +0.224 C 
ATOM      8  O   VAL A   1      19.724  13.835  20.847  0.00  0.00    -0.287 OA
ENDBRANCH   1   7
TORSDOF 3
REMARK  Name = ../refined-set-2016/1zfq/1zfq_pocket.pdb
REMARK  147 active torsions:
REMARK  status: ('A' for Active; 'I' for Inactive)
REMARK    1  A    between atoms: _1  and  _3
REMARK    2  A    between atoms: _3  and  _4
REMARK    3  A    between atoms: _3  and  _6
REMARK    4  A    between atoms: _6  and  _7
REMARK    5  A    between atoms: _17  and  _19
REMARK    6  A    between atoms: _19  and  _20
REMARK    7  A    between atoms: _19  and  _22
REMARK    8  A    between atoms: _22  and  _23
REMARK    9  A    between atoms: _28  and  _29
REMARK   10  A    between atoms: _31  and  _33
REMARK   11  A    between atoms: _33  and  _34
REMARK   12  A    between atoms: _33  and  _36
REMARK   13  A    between atoms: _36  and  _37
REMARK   14  A    between atoms: _40  and  _41
REMARK   15  A    between atoms: _46  and  _48
REMARK   16  A    between atoms: _48  and  _49
REMARK   17  A    between atoms: _48  and  _51
REMARK   18  A    between atoms: _51  and  _52
REMARK   19  A    between atoms: _57  and  _59
REMARK   20  A    between atoms: _59  and  _60
REMARK   21  A    between atoms: _59  and  _62
REMARK   22  A    between atoms: _62  and  _63
REMARK   23  A    between atoms: _68  and  _70
REMARK   24  A    between atoms: _70  and  _71
REMARK   25  A    between atoms: _74  and  _76
REMARK   26  A    between atoms: _76  and  _77
REMARK   27  A    between atoms: _76  and  _79
REMARK   28  A    between atoms: _79  and  _80
REMARK   29  A    between atoms: _85  and  _87
REMARK   30  A    between atoms: _87  and  _88
REMARK   31  A    between atoms: _87  and  _90
REMARK   32  A    between atoms: _90  and  _91
REMARK   33  A    between atoms: _94  and  _96
REMARK   34  A    between atoms: _96  and  _97
REMARK   35  A    between atoms: _96  and  _99
REMARK   36  A    between atoms: _99  and  _100
REMARK   37  A    between atoms: _100  and  _101
REMARK   38  A    between atoms: _106  and  _108
REMARK   39  A    between atoms: _108  and  _109
REMARK   40  A    between atoms: _108  and  _111
REMARK   41  A    between atoms: _111  and  _112
REMARK   42  A    between atoms: _118  and  _120
REMARK   43  A    between atoms: _131  and  _134
REMARK   44  A    between atoms: _134  and  _135
REMARK   45  A    between atoms: _143  and  _144
REMARK   46  A    between atoms: _152  and  _154
REMARK   47  A    between atoms: _154  and  _155
REMARK   48  A    between atoms: _154  and  _157
REMARK   49  A    between atoms: _157  and  _158
REMARK   50  A    between atoms: _158  and  _159
REMARK   51  A    between atoms: _162  and  _164
REMARK   52  A    between atoms: _164  and  _165
REMARK   53  A    between atoms: _164  and  _167
REMARK   54  A    between atoms: _167  and  _168
REMARK   55  A    between atoms: _173  and  _175
REMARK   56  A    between atoms: _175  and  _176
REMARK   57  A    between atoms: _175  and  _178
REMARK   58  A    between atoms: _178  and  _179
REMARK   59  A    between atoms: _179  and  _180
REMARK   60  A    between atoms: _183  and  _185
REMARK   61  A    between atoms: _185  and  _186
REMARK   62  A    between atoms: _185  and  _188
REMARK   63  A    between atoms: _188  and  _189
REMARK   64  A    between atoms: _192  and  _194
REMARK   65  A    between atoms: _194  and  _195
REMARK   66  A    between atoms: _194  and  _197
REMARK   67  A    between atoms: _197  and  _198
REMARK   68  A    between atoms: _199  and  ZN_414
REMARK   69  A    between atoms: _203  and  _205
REMARK   70  A    between atoms: _205  and  _206
REMARK   71  A    between atoms: _205  and  _208
REMARK   72  A    between atoms: _208  and  _209
REMARK   73  A    between atoms: _212  and  _214
REMARK   74  A    between atoms: _214  and  _215
REMARK   75  A    between atoms: _214  and  _217
REMARK   76  A    between atoms: _220  and  _222
REMARK   77  A    between atoms: _222  and  _223
REMARK   78  A    between atoms: _222  and  _225
REMARK   79  A    between atoms: _225  and  _226
REMARK   80  A    between atoms: _231  and  _233
REMARK   81  A    between atoms: _233  and  _234
REMARK   82  A    between atoms: _233  and  _236
REMARK   83  A    between atoms: _236  and  _237
REMARK   84  A    between atoms: _243  and  _245
REMARK   85  A    between atoms: _245  and  _246
REMARK   86  A    between atoms: _245  and  _248
REMARK   87  A    between atoms: _251  and  _253
REMARK   88  A    between atoms: _253  and  _254
REMARK   89  A    between atoms: _253  and  _256
REMARK   90  A    between atoms: _256  and  _257
REMARK   91  A    between atoms: _260  and  _262
REMARK   92  A    between atoms: _262  and  _263
REMARK   93  A    between atoms: _266  and  _268
REMARK   94  A    between atoms: _268  and  _269
REMARK   95  A    between atoms: _268  and  _271
REMARK   96  A    between atoms: _274  and  _276
REMARK   97  A    between atoms: _276  and  _277
REMARK   98  A    between atoms: _276  and  _279
REMARK   99  A    between atoms: _279  and  _280
REMARK  100  A    between atoms: _283  and  _285
REMARK  101  A    between atoms: _285  and  _286
REMARK  102  A    between atoms: _288  and  _290
REMARK  103  A    between atoms: _290  and  _291
REMARK  104  A    between atoms: _290  and  _293
REMARK  105  A    between atoms: _293  and  _294
REMARK  106  A    between atoms: _296  and  _298
REMARK  107  A    between atoms: _298  and  _299
REMARK  108  A    between atoms: _298  and  _301
REMARK  109  A    between atoms: _301  and  _302
REMARK  110  A    between atoms: _305  and  _307
REMARK  111  A    between atoms: _307  and  _308
REMARK  112  A    between atoms: _307  and  _310
REMARK  113  A    between atoms: _310  and  _311
REMARK  114  A    between atoms: _314  and  _316
REMARK  115  A    between atoms: _316  and  _317
REMARK  116  A    between atoms: _316  and  _319
REMARK  117  A    between atoms: _319  and  _320
REMARK  118  A    between atoms: _324  and  _325
REMARK  119  A    between atoms: _331  and  _332
REMARK  120  A    between atoms: _337  and  _339
REMARK  121  A    between atoms: _339  and  _340
REMARK  122  A    between atoms: _339  and  _342
REMARK  123  A    between atoms: _342  and  _343
REMARK  124  A    between atoms: _346  and  _348
REMARK  125  A    between atoms: _348  and  _349
REMARK  126  A    between atoms: _348  and  _351
REMARK  127  A    between atoms: _351  and  _352
REMARK  128  A    between atoms: _355  and  _357
REMARK  129  A    between atoms: _357  and  _358
REMARK  130  A    between atoms: _357  and  _360
REMARK  131  A    between atoms: _362  and  _364
REMARK  132  A    between atoms: _364  and  _365
REMARK  133  A    between atoms: _364  and  _367
REMARK  134  A    between atoms: _370  and  _372
REMARK  135  A    between atoms: _372  and  _373
REMARK  136  A    between atoms: _372  and  _375
REMARK  137  A    between atoms: _375  and  _376
REMARK  138  A    between atoms: _386  and  _388
REMARK  139  A    between atoms: _388  and  _389
REMARK  140  A    between atoms: _388  and  _391
REMARK  141  A    between atoms: _391  and  _392
REMARK  142  A    between atoms: _397  and  _399
REMARK  143  A    between atoms: _399  and  _400
REMARK  144  A    between atoms: _399  and  _402
REMARK  145  A    between atoms: _402  and  _403
REMARK  146  A    between atoms: _403  and  _404
REMARK  147  A    between atoms: _404  and  _405
REMARK                            x       y       z     vdW  Elec       q    Type
REMARK                         _______ _______ _______ _____ _____    ______ ____
ROOT
ATOM      1  C   ALA A   2       8.859   6.755  20.747  0.00  0.00    +0.241 C 
ATOM      2  N   VAL A   3       9.270   5.535  21.057  0.00  0.00    -0.297 N 
ATOM      3  H   VAL A   3       9.616   5.324  22.015  0.00  0.00    +0.150 HD
ATOM      4  O   ALA A   2       8.465   7.100  19.625  0.00  0.00    -0.273 OA
ENDROOT
BRANCH   1   5
ATOM      5  CA  ALA A   2       8.909   7.805  21.858  0.00  0.00    +0.149 C 
ATOM      6  CB  ALA A   2       7.517   8.181  22.344  0.00  0.00    +0.031 C 
BRANCH   5   9
ATOM      7  C   LEU A   1      10.640   9.493  22.054  0.00  0.00    +0.238 C 
ATOM      8  O   LEU A   1      10.866   9.240  23.236  0.00  0.00    -0.274 OA
ATOM      9  N   ALA A   2       9.663   8.930  21.343  0.00  0.00    -0.297 N 
ATOM     10  H   ALA A   2       9.437   9.306  20.400  0.00  0.00    +0.150 HD
BRANCH   7  11
ATOM     11  CA  LEU A   1      11.501  10.501  21.317  0.00  0.00    +0.145 C 
BRANCH  11  12
ATOM     12  N   LEU A   1      12.137  11.427  22.255  0.00  0.00    -0.238 NA
ATOM     13  H   LEU A   1      12.632  11.060  23.093  0.00  0.00    +0.142 HD
ENDBRANCH  11  12
BRANCH  11  14
ATOM     14  CB  LEU A   1      12.565   9.688  20.568  0.00  0.00    +0.026 C 
BRANCH  14  15
ATOM     15  CG  LEU A   1      13.544  10.428  19.681  0.00  0.00    +0.002 C 
ATOM     16  CD2 LEU A   1      14.497   9.439  18.999  0.00  0.00    +0.000 C 
ATOM     17  CD1 LEU A   1      12.883  11.263  18.604  0.00  0.00    +0.000 C 
ENDBRANCH  14  15
ENDBRANCH  11  14
ENDBRANCH   7  11
ENDBRANCH   5   9
ENDBRANCH   1   5
BRANCH   2  18
ATOM     18  CA  VAL A   3       9.231   4.495  20.043  0.00  0.00    +0.149 C 
BRANCH  18  19
ATOM     19  C   VAL A   3       8.244   3.437  20.539  0.00  0.00    +0.241 C 
ATOM     20  O   VAL A   3       8.357   2.952  21.653  0.00  0.00    -0.273 OA
ATOM     21  N   LEU A   4       7.265   3.134  19.708  0.00  0.00    -0.298 N 
ATOM     22  H   LEU A   4       7.217   3.654  18.808  0.00  0.00    +0.150 HD
BRANCH  21  23
ATOM     23  CA  LEU A   4       6.256   2.133  19.958  0.00  0.00    +0.137 C 
BRANCH  23  24
ATOM     24  C   LEU A   4       6.765   0.880  19.262  0.00  0.00    +0.227 C 
ATOM     25  O   LEU A   4       6.925   0.848  18.032  0.00  0.00    -0.286 OA
ENDBRANCH  23  24
BRANCH  23  26
ATOM     26  CB  LEU A   4       4.918   2.562  19.402  0.00  0.00    +0.028 C 
BRANCH  26  27
ATOM     27  CG  LEU A   4       3.750   1.592  19.562  0.00  0.00    +0.002 C 
ATOM     28  CD2 LEU A   4       3.493   1.242  21.004  0.00  0.00    +0.000 C 
ATOM     29  CD1 LEU A   4       2.518   2.233  18.925  0.00  0.00    +0.000 C 
ENDBRANCH  26  27
ENDBRANCH  23  26
ENDBRANCH  21  23
ENDBRANCH  18  19
BRANCH  18  30
ATOM     30  CB  VAL A   3      10.590   3.884  19.699  0.00  0.00    +0.027 C 
ATOM     31  CG2 VAL A   3      11.543   4.944  19.218  0.00  0.00    +0.002 C 
ATOM     32  CG1 VAL A   3      10.381   2.836  18.594  0.00  0.00    +0.002 C 
ENDBRANCH  18  30
ENDBRANCH   2  18
TORSDOF 13
REMARK  Name = ../refined-set-2016/1zfq/1zfq_pocket.pdb
REMARK  147 active torsions:
REMARK  status: ('A' for Active; 'I' for Inactive)
REMARK    1  A    between atoms: _1  and  _3
REMARK    2  A    between atoms: _3  and  _4
REMARK    3  A    between atoms: _3  and  _6
REMARK    4  A    between atoms: _6  and  _7
REMARK    5  A    between atoms: _17  and  _19
REMARK    6  A    between atoms: _19  and  _20
REMARK    7  A    between atoms: _19  and  _22
REMARK    8  A    between atoms: _22  and  _23
REMARK    9  A    between atoms: _28  and  _29
REMARK   10  A    between atoms: _31  and  _33
REMARK   11  A    between atoms: _33  and  _34
REMARK   12  A    between atoms: _33  and  _36
REMARK   13  A    between atoms: _36  and  _37
REMARK   14  A    between atoms: _40  and  _41
REMARK   15  A    between atoms: _46  and  _48
REMARK   16  A    between atoms: _48  and  _49
REMARK   17  A    between atoms: _48  and  _51
REMARK   18  A    between atoms: _51  and  _52
REMARK   19  A    between atoms: _57  and  _59
REMARK   20  A    between atoms: _59  and  _60
REMARK   21  A    between atoms: _59  and  _62
REMARK   22  A    between atoms: _62  and  _63
REMARK   23  A    between atoms: _68  and  _70
REMARK   24  A    between atoms: _70  and  _71
REMARK   25  A    between atoms: _74  and  _76
REMARK   26  A    between atoms: _76  and  _77
REMARK   27  A    between atoms: _76  and  _79
REMARK   28  A    between atoms: _79  and  _80
REMARK   29  A    between atoms: _85  and  _87
REMARK   30  A    between atoms: _87  and  _88
REMARK   31  A    between atoms: _87  and  _90
REMARK   32  A    between atoms: _90  and  _91
REMARK   33  A    between atoms: _94  and  _96
REMARK   34  A    between atoms: _96  and  _97
REMARK   35  A    between atoms: _96  and  _99
REMARK   36  A    between atoms: _99  and  _100
REMARK   37  A    between atoms: _100  and  _101
REMARK   38  A    between atoms: _106  and  _108
REMARK   39  A    between atoms: _108  and  _109
REMARK   40  A    between atoms: _108  and  _111
REMARK   41  A    between atoms: _111  and  _112
REMARK   42  A    between atoms: _118  and  _120
REMARK   43  A    between atoms: _131  and  _134
REMARK   44  A    between atoms: _134  and  _135
REMARK   45  A    between atoms: _143  and  _144
REMARK   46  A    between atoms: _152  and  _154
REMARK   47  A    between atoms: _154  and  _155
REMARK   48  A    between atoms: _154  and  _157
REMARK   49  A    between atoms: _157  and  _158
REMARK   50  A    between atoms: _158  and  _159
REMARK   51  A    between atoms: _162  and  _164
REMARK   52  A    between atoms: _164  and  _165
REMARK   53  A    between atoms: _164  and  _167
REMARK   54  A    between atoms: _167  and  _168
REMARK   55  A    between atoms: _173  and  _175
REMARK   56  A    between atoms: _175  and  _176
REMARK   57  A    between atoms: _175  and  _178
REMARK   58  A    between atoms: _178  and  _179
REMARK   59  A    between atoms: _179  and  _180
REMARK   60  A    between atoms: _183  and  _185
REMARK   61  A    between atoms: _185  and  _186
REMARK   62  A    between atoms: _185  and  _188
REMARK   63  A    between atoms: _188  and  _189
REMARK   64  A    between atoms: _192  and  _194
REMARK   65  A    between atoms: _194  and  _195
REMARK   66  A    between atoms: _194  and  _197
REMARK   67  A    between atoms: _197  and  _198
REMARK   68  A    between atoms: _199  and  ZN_414
REMARK   69  A    between atoms: _203  and  _205
REMARK   70  A    between atoms: _205  and  _206
REMARK   71  A    between atoms: _205  and  _208
REMARK   72  A    between atoms: _208  and  _209
REMARK   73  A    between atoms: _212  and  _214
REMARK   74  A    between atoms: _214  and  _215
REMARK   75  A    between atoms: _214  and  _217
REMARK   76  A    between atoms: _220  and  _222
REMARK   77  A    between atoms: _222  and  _223
REMARK   78  A    between atoms: _222  and  _225
REMARK   79  A    between atoms: _225  and  _226
REMARK   80  A    between atoms: _231  and  _233
REMARK   81  A    between atoms: _233  and  _234
REMARK   82  A    between atoms: _233  and  _236
REMARK   83  A    between atoms: _236  and  _237
REMARK   84  A    between atoms: _243  and  _245
REMARK   85  A    between atoms: _245  and  _246
REMARK   86  A    between atoms: _245  and  _248
REMARK   87  A    between atoms: _251  and  _253
REMARK   88  A    between atoms: _253  and  _254
REMARK   89  A    between atoms: _253  and  _256
REMARK   90  A    between atoms: _256  and  _257
REMARK   91  A    between atoms: _260  and  _262
REMARK   92  A    between atoms: _262  and  _263
REMARK   93  A    between atoms: _266  and  _268
REMARK   94  A    between atoms: _268  and  _269
REMARK   95  A    between atoms: _268  and  _271
REMARK   96  A    between atoms: _274  and  _276
REMARK   97  A    between atoms: _276  and  _277
REMARK   98  A    between atoms: _276  and  _279
REMARK   99  A    between atoms: _279  and  _280
REMARK  100  A    between atoms: _283  and  _285
REMARK  101  A    between atoms: _285  and  _286
REMARK  102  A    between atoms: _288  and  _290
REMARK  103  A    between atoms: _290  and  _291
REMARK  104  A    between atoms: _290  and  _293
REMARK  105  A    between atoms: _293  and  _294
REMARK  106  A    between atoms: _296  and  _298
REMARK  107  A    between atoms: _298  and  _299
REMARK  108  A    between atoms: _298  and  _301
REMARK  109  A    between atoms: _301  and  _302
REMARK  110  A    between atoms: _305  and  _307
REMARK  111  A    between atoms: _307  and  _308
REMARK  112  A    between atoms: _307  and  _310
REMARK  113  A    between atoms: _310  and  _311
REMARK  114  A    between atoms: _314  and  _316
REMARK  115  A    between atoms: _316  and  _317
REMARK  116  A    between atoms: _316  and  _319
REMARK  117  A    between atoms: _319  and  _320
REMARK  118  A    between atoms: _324  and  _325
REMARK  119  A    between atoms: _331  and  _332
REMARK  120  A    between atoms: _337  and  _339
REMARK  121  A    between atoms: _339  and  _340
REMARK  122  A    between atoms: _339  and  _342
REMARK  123  A    between atoms: _342  and  _343
REMARK  124  A    between atoms: _346  and  _348
REMARK  125  A    between atoms: _348  and  _349
REMARK  126  A    between atoms: _348  and  _351
REMARK  127  A    between atoms: _351  and  _352
REMARK  128  A    between atoms: _355  and  _357
REMARK  129  A    between atoms: _357  and  _358
REMARK  130  A    between atoms: _357  and  _360
REMARK  131  A    between atoms: _362  and  _364
REMARK  132  A    between atoms: _364  and  _365
REMARK  133  A    between atoms: _364  and  _367
REMARK  134  A    between atoms: _370  and  _372
REMARK  135  A    between atoms: _372  and  _373
REMARK  136  A    between atoms: _372  and  _375
REMARK  137  A    between atoms: _375  and  _376
REMARK  138  A    between atoms: _386  and  _388
REMARK  139  A    between atoms: _388  and  _389
REMARK  140  A    between atoms: _388  and  _391
REMARK  141  A    between atoms: _391  and  _392
REMARK  142  A    between atoms: _397  and  _399
REMARK  143  A    between atoms: _399  and  _400
REMARK  144  A    between atoms: _399  and  _402
REMARK  145  A    between atoms: _402  and  _403
REMARK  146  A    between atoms: _403  and  _404
REMARK  147  A    between atoms: _404  and  _405
REMARK                            x       y       z     vdW  Elec       q    Type
REMARK                         _______ _______ _______ _____ _____    ______ ____
ROOT
ATOM      1  CA  THR A   5      21.315   1.781  16.102  0.00  0.00    +0.176 C 
ENDROOT
BRANCH   1   2
ATOM      2  C   THR A   5      22.117   3.053  16.370  0.00  0.00    +0.246 C 
ATOM      3  O   THR A   5      21.593   3.989  16.981  0.00  0.00    -0.273 OA
ATOM      4  N   PRO A   6      23.375   3.083  15.918  0.00  0.00    -0.272 N 
ATOM      5  CA  PRO A   6      24.121   4.347  15.996  0.00  0.00    +0.152 C 
ATOM      6  CB  PRO A   6      25.368   3.988  15.164  0.00  0.00    +0.031 C 
ATOM      7  CG  PRO A   6      25.545   2.528  15.426  0.00  0.00    +0.024 C 
ATOM      8  CD  PRO A   6      24.154   1.980  15.352  0.00  0.00    +0.094 C 
BRANCH   5   9
ATOM      9  C   PRO A   6      23.336   5.501  15.440  0.00  0.00    +0.244 C 
ATOM     10  N   PRO A   7      23.335   6.679  16.058  0.00  0.00    -0.272 N 
ATOM     11  CA  PRO A   7      24.214   7.070  17.158  0.00  0.00    +0.152 C 
ATOM     12  CB  PRO A   7      24.150   8.601  17.075  0.00  0.00    +0.031 C 
ATOM     13  CG  PRO A   7      22.791   8.924  16.522  0.00  0.00    +0.024 C 
ATOM     14  CD  PRO A   7      22.453   7.786  15.631  0.00  0.00    +0.094 C 
ATOM     15  O   PRO A   6      22.668   5.305  14.412  0.00  0.00    -0.273 OA
BRANCH  11  16
ATOM     16  C   PRO A   7      23.834   6.616  18.560  0.00  0.00    +0.241 C 
ATOM     17  O   PRO A   7      24.517   7.042  19.512  0.00  0.00    -0.273 OA
ATOM     18  N   LEU A   8      22.823   5.787  18.750  0.00  0.00    -0.297 N 
ATOM     19  H   LEU A   8      22.201   5.575  17.944  0.00  0.00    +0.150 HD
BRANCH  18  20
ATOM     20  CA  LEU A   8      22.532   5.148  20.044  0.00  0.00    +0.149 C 
BRANCH  20  21
ATOM     21  C   LEU A   8      22.169   6.138  21.144  0.00  0.00    +0.241 C 
ATOM     22  O   LEU A   8      22.354   5.884  22.344  0.00  0.00    -0.273 OA
ATOM     23  N   LEU A   9      21.600   7.248  20.699  0.00  0.00    -0.298 N 
ATOM     24  H   LEU A   9      21.362   7.345  19.691  0.00  0.00    +0.150 HD
BRANCH  23  25
ATOM     25  CA  LEU A   9      21.307   8.341  21.633  0.00  0.00    +0.137 C 
BRANCH  25  26
ATOM     26  C   LEU A   9      20.257   7.998  22.674  0.00  0.00    +0.227 C 
ATOM     27  O   LEU A   9      19.225   7.354  22.386  0.00  0.00    -0.286 OA
ENDBRANCH  25  26
BRANCH  25  28
ATOM     28  CB  LEU A   9      20.920   9.569  20.798  0.00  0.00    +0.028 C 
BRANCH  28  29
ATOM     29  CG  LEU A   9      22.046  10.054  19.858  0.00  0.00    +0.002 C 
ATOM     30  CD2 LEU A   9      23.271  10.514  20.634  0.00  0.00    +0.000 C 
ATOM     31  CD1 LEU A   9      21.560  11.139  18.931  0.00  0.00    +0.000 C 
ENDBRANCH  28  29
ENDBRANCH  25  28
ENDBRANCH  23  25
ENDBRANCH  20  21
BRANCH  20  32
ATOM     32  CB  LEU A   8      23.719   4.274  20.495  0.00  0.00    +0.029 C 
BRANCH  32  33
ATOM     33  CG  LEU A   8      24.070   3.104  19.576  0.00  0.00    +0.002 C 
ATOM     34  CD2 LEU A   8      25.372   2.435  19.962  0.00  0.00    +0.000 C 
ATOM     35  CD1 LEU A   8      22.994   2.039  19.504  0.00  0.00    +0.000 C 
ENDBRANCH  32  33
ENDBRANCH  20  32
ENDBRANCH  18  20
ENDBRANCH  11  16
ENDBRANCH   5   9
ENDBRANCH   1   2
BRANCH   1  38
ATOM     36  C   THR A   4      20.040   0.675  17.890  0.00  0.00    +0.243 C 
ATOM     37  O   THR A   4      20.692  -0.365  17.803  0.00  0.00    -0.273 OA
ATOM     38  N   THR A   5      20.230   1.719  17.091  0.00  0.00    -0.295 N 
ATOM     39  H   THR A   5      19.582   2.529  17.169  0.00  0.00    +0.150 HD
BRANCH  36  40
ATOM     40  CA  THR A   4      19.041   0.803  19.038  0.00  0.00    +0.176 C 
BRANCH  40  43
ATOM     41  C   LEU A   3      18.821   3.081  19.827  0.00  0.00    +0.241 C 
ATOM     42  O   LEU A   3      19.844   2.955  20.533  0.00  0.00    -0.273 OA
ATOM     43  N   THR A   4      18.374   2.098  19.050  0.00  0.00    -0.295 N 
ATOM     44  H   THR A   4      17.542   2.255  18.446  0.00  0.00    +0.150 HD
BRANCH  41  45
ATOM     45  CA  LEU A   3      18.042   4.395  19.786  0.00  0.00    +0.149 C 
BRANCH  45  48
ATOM     46  C   SER A   2      17.529   4.277  22.152  0.00  0.00    +0.243 C 
ATOM     47  O   SER A   2      16.761   3.332  22.032  0.00  0.00    -0.273 OA
ATOM     48  N   LEU A   3      18.107   4.937  21.155  0.00  0.00    -0.297 N 
ATOM     49  H   LEU A   3      18.603   5.832  21.339  0.00  0.00    +0.150 HD
BRANCH  46  50
ATOM     50  CA  SER A   2      17.999   4.685  23.540  0.00  0.00    +0.178 C 
BRANCH  50  53
ATOM     51  C   GLY A   1      16.797   4.726  25.675  0.00  0.00    +0.240 C 
ATOM     52  O   GLY A   1      16.804   5.949  25.786  0.00  0.00    -0.274 OA
ATOM     53  N   SER A   2      17.270   4.068  24.626  0.00  0.00    -0.295 N 
ATOM     54  H   SER A   2      17.106   3.042  24.581  0.00  0.00    +0.150 HD
BRANCH  51  55
ATOM     55  CA  GLY A   1      16.234   3.846  26.786  0.00  0.00    +0.169 C 
BRANCH  55  56
ATOM     56  N   GLY A   1      15.087   4.464  27.440  0.00  0.00    -0.236 NA
ATOM     57  H   GLY A   1      14.469   5.126  26.928  0.00  0.00    +0.142 HD
ENDBRANCH  55  56
ENDBRANCH  51  55
ENDBRANCH  50  53
BRANCH  50  58
ATOM     58  CB  SER A   2      19.463   4.263  23.631  0.00  0.00    +0.166 C 
BRANCH  58  59
ATOM     59  OG  SER A   2      19.746   2.922  23.292  0.00  0.00    -0.380 OA
ATOM     60  H   SER A   2      19.470   2.754  22.356  0.00  0.00    +0.211 HD
ENDBRANCH  58  59
ENDBRANCH  50  58
ENDBRANCH  46  50
ENDBRANCH  45  48
BRANCH  45  61
ATOM     61  CB  LEU A   3      18.633   5.345  18.782  0.00  0.00    +0.029 C 
BRANCH  61  62
ATOM     62  CG  LEU A   3      18.043   6.757  18.760  0.00  0.00    +0.002 C 
ATOM     63  CD2 LEU A   3      16.604   6.690  18.285  0.00  0.00    +0.000 C 
ATOM     64  CD1 LEU A   3      18.900   7.658  17.881  0.00  0.00    +0.000 C 
ENDBRANCH  61  62
ENDBRANCH  45  61
ENDBRANCH  41  45
ENDBRANCH  40  43
BRANCH  40  65
ATOM     65  CB  THR A   4      18.046  -0.376  18.933  0.00  0.00    +0.137 C 
ATOM     66  CG2 THR A   4      16.969  -0.305  19.978  0.00  0.00    +0.034 C 
BRANCH  65  67
ATOM     67  OG1 THR A   4      17.459  -0.318  17.635  0.00  0.00    -0.382 OA
ATOM     68  HG1 THR A   4      16.814  -1.062  17.532  0.00  0.00    +0.210 HD
ENDBRANCH  65  67
ENDBRANCH  40  65
ENDBRANCH  36  40
ENDBRANCH   1  38
BRANCH   1  69
ATOM     69  CB  THR A   5      20.892   1.781  14.630  0.00  0.00    +0.137 C 
ATOM     70  CG2 THR A   5      19.821   0.742  14.347  0.00  0.00    +0.034 C 
BRANCH  69  71
ATOM     71  OG1 THR A   5      20.278   3.035  14.258  0.00  0.00    -0.382 OA
ATOM     72  HG1 THR A   5      20.017   3.003  13.304  0.00  0.00    +0.210 HD
ENDBRANCH  69  71
ENDBRANCH   1  69
TORSDOF 28
REMARK  Name = ../refined-set-2016/1zfq/1zfq_pocket.pdb
REMARK  147 active torsions:
REMARK  status: ('A' for Active; 'I' for Inactive)
REMARK    1  A    between atoms: _1  and  _3
REMARK    2  A    between atoms: _3  and  _4
REMARK    3  A    between atoms: _3  and  _6
REMARK    4  A    between atoms: _6  and  _7
REMARK    5  A    between atoms: _17  and  _19
REMARK    6  A    between atoms: _19  and  _20
REMARK    7  A    between atoms: _19  and  _22
REMARK    8  A    between atoms: _22  and  _23
REMARK    9  A    between atoms: _28  and  _29
REMARK   10  A    between atoms: _31  and  _33
REMARK   11  A    between atoms: _33  and  _34
REMARK   12  A    between atoms: _33  and  _36
REMARK   13  A    between atoms: _36  and  _37
REMARK   14  A    between atoms: _40  and  _41
REMARK   15  A    between atoms: _46  and  _48
REMARK   16  A    between atoms: _48  and  _49
REMARK   17  A    between atoms: _48  and  _51
REMARK   18  A    between atoms: _51  and  _52
REMARK   19  A    between atoms: _57  and  _59
REMARK   20  A    between atoms: _59  and  _60
REMARK   21  A    between atoms: _59  and  _62
REMARK   22  A    between atoms: _62  and  _63
REMARK   23  A    between atoms: _68  and  _70
REMARK   24  A    between atoms: _70  and  _71
REMARK   25  A    between atoms: _74  and  _76
REMARK   26  A    between atoms: _76  and  _77
REMARK   27  A    between atoms: _76  and  _79
REMARK   28  A    between atoms: _79  and  _80
REMARK   29  A    between atoms: _85  and  _87
REMARK   30  A    between atoms: _87  and  _88
REMARK   31  A    between atoms: _87  and  _90
REMARK   32  A    between atoms: _90  and  _91
REMARK   33  A    between atoms: _94  and  _96
REMARK   34  A    between atoms: _96  and  _97
REMARK   35  A    between atoms: _96  and  _99
REMARK   36  A    between atoms: _99  and  _100
REMARK   37  A    between atoms: _100  and  _101
REMARK   38  A    between atoms: _106  and  _108
REMARK   39  A    between atoms: _108  and  _109
REMARK   40  A    between atoms: _108  and  _111
REMARK   41  A    between atoms: _111  and  _112
REMARK   42  A    between atoms: _118  and  _120
REMARK   43  A    between atoms: _131  and  _134
REMARK   44  A    between atoms: _134  and  _135
REMARK   45  A    between atoms: _143  and  _144
REMARK   46  A    between atoms: _152  and  _154
REMARK   47  A    between atoms: _154  and  _155
REMARK   48  A    between atoms: _154  and  _157
REMARK   49  A    between atoms: _157  and  _158
REMARK   50  A    between atoms: _158  and  _159
REMARK   51  A    between atoms: _162  and  _164
REMARK   52  A    between atoms: _164  and  _165
REMARK   53  A    between atoms: _164  and  _167
REMARK   54  A    between atoms: _167  and  _168
REMARK   55  A    between atoms: _173  and  _175
REMARK   56  A    between atoms: _175  and  _176
REMARK   57  A    between atoms: _175  and  _178
REMARK   58  A    between atoms: _178  and  _179
REMARK   59  A    between atoms: _179  and  _180
REMARK   60  A    between atoms: _183  and  _185
REMARK   61  A    between atoms: _185  and  _186
REMARK   62  A    between atoms: _185  and  _188
REMARK   63  A    between atoms: _188  and  _189
REMARK   64  A    between atoms: _192  and  _194
REMARK   65  A    between atoms: _194  and  _195
REMARK   66  A    between atoms: _194  and  _197
REMARK   67  A    between atoms: _197  and  _198
REMARK   68  A    between atoms: _199  and  ZN_414
REMARK   69  A    between atoms: _203  and  _205
REMARK   70  A    between atoms: _205  and  _206
REMARK   71  A    between atoms: _205  and  _208
REMARK   72  A    between atoms: _208  and  _209
REMARK   73  A    between atoms: _212  and  _214
REMARK   74  A    between atoms: _214  and  _215
REMARK   75  A    between atoms: _214  and  _217
REMARK   76  A    between atoms: _220  and  _222
REMARK   77  A    between atoms: _222  and  _223
REMARK   78  A    between atoms: _222  and  _225
REMARK   79  A    between atoms: _225  and  _226
REMARK   80  A    between atoms: _231  and  _233
REMARK   81  A    between atoms: _233  and  _234
REMARK   82  A    between atoms: _233  and  _236
REMARK   83  A    between atoms: _236  and  _237
REMARK   84  A    between atoms: _243  and  _245
REMARK   85  A    between atoms: _245  and  _246
REMARK   86  A    between atoms: _245  and  _248
REMARK   87  A    between atoms: _251  and  _253
REMARK   88  A    between atoms: _253  and  _254
REMARK   89  A    between atoms: _253  and  _256
REMARK   90  A    between atoms: _256  and  _257
REMARK   91  A    between atoms: _260  and  _262
REMARK   92  A    between atoms: _262  and  _263
REMARK   93  A    between atoms: _266  and  _268
REMARK   94  A    between atoms: _268  and  _269
REMARK   95  A    between atoms: _268  and  _271
REMARK   96  A    between atoms: _274  and  _276
REMARK   97  A    between atoms: _276  and  _277
REMARK   98  A    between atoms: _276  and  _279
REMARK   99  A    between atoms: _279  and  _280
REMARK  100  A    between atoms: _283  and  _285
REMARK  101  A    between atoms: _285  and  _286
REMARK  102  A    between atoms: _288  and  _290
REMARK  103  A    between atoms: _290  and  _291
REMARK  104  A    between atoms: _290  and  _293
REMARK  105  A    between atoms: _293  and  _294
REMARK  106  A    between atoms: _296  and  _298
REMARK  107  A    between atoms: _298  and  _299
REMARK  108  A    between atoms: _298  and  _301
REMARK  109  A    between atoms: _301  and  _302
REMARK  110  A    between atoms: _305  and  _307
REMARK  111  A    between atoms: _307  and  _308
REMARK  112  A    between atoms: _307  and  _310
REMARK  113  A    between atoms: _310  and  _311
REMARK  114  A    between atoms: _314  and  _316
REMARK  115  A    between atoms: _316  and  _317
REMARK  116  A    between atoms: _316  and  _319
REMARK  117  A    between atoms: _319  and  _320
REMARK  118  A    between atoms: _324  and  _325
REMARK  119  A    between atoms: _331  and  _332
REMARK  120  A    between atoms: _337  and  _339
REMARK  121  A    between atoms: _339  and  _340
REMARK  122  A    between atoms: _339  and  _342
REMARK  123  A    between atoms: _342  and  _343
REMARK  124  A    between atoms: _346  and  _348
REMARK  125  A    between atoms: _348  and  _349
REMARK  126  A    between atoms: _348  and  _351
REMARK  127  A    between atoms: _351  and  _352
REMARK  128  A    between atoms: _355  and  _357
REMARK  129  A    between atoms: _357  and  _358
REMARK  130  A    between atoms: _357  and  _360
REMARK  131  A    between atoms: _362  and  _364
REMARK  132  A    between atoms: _364  and  _365
REMARK  133  A    between atoms: _364  and  _367
REMARK  134  A    between atoms: _370  and  _372
REMARK  135  A    between atoms: _372  and  _373
REMARK  136  A    between atoms: _372  and  _375
REMARK  137  A    between atoms: _375  and  _376
REMARK  138  A    between atoms: _386  and  _388
REMARK  139  A    between atoms: _388  and  _389
REMARK  140  A    between atoms: _388  and  _391
REMARK  141  A    between atoms: _391  and  _392
REMARK  142  A    between atoms: _397  and  _399
REMARK  143  A    between atoms: _399  and  _400
REMARK  144  A    between atoms: _399  and  _402
REMARK  145  A    between atoms: _402  and  _403
REMARK  146  A    between atoms: _403  and  _404
REMARK  147  A    between atoms: _404  and  _405
REMARK                            x       y       z     vdW  Elec       q    Type
REMARK                         _______ _______ _______ _____ _____    ______ ____
ROOT
ATOM      1  C   CYS A   1      15.261   9.465  24.073  0.00  0.00    +0.239 C 
ATOM      2  N   VAL A   2      15.039   8.130  24.270  0.00  0.00    -0.298 N 
ATOM      3  H   VAL A   2      15.815   7.570  24.676  0.00  0.00    +0.150 HD
ATOM      4  O   CYS A   1      14.213  10.129  23.913  0.00  0.00    -0.274 OA
ENDROOT
BRANCH   1   5
ATOM      5  CA  CYS A   1      16.658  10.097  24.127  0.00  0.00    +0.156 C 
BRANCH   5   6
ATOM      6  N   CYS A   1      17.575   8.944  24.258  0.00  0.00    -0.237 NA
ATOM      7  H   CYS A   1      17.520   8.136  23.606  0.00  0.00    +0.142 HD
ENDBRANCH   5   6
BRANCH   5   8
ATOM      8  CB  CYS A   1      17.335  11.041  23.086  0.00  0.00    +0.095 C 
ATOM      9  SG  CYS A   1      18.851  12.140  23.145  0.00  0.00    -0.080 S 
ENDBRANCH   5   8
ENDBRANCH   1   5
BRANCH   2  10
ATOM     10  CA  VAL A   2      13.799   7.431  23.955  0.00  0.00    +0.137 C 
BRANCH  10  11
ATOM     11  CB  VAL A   2      14.047   6.199  23.030  0.00  0.00    +0.026 C 
ATOM     12  CG2 VAL A   2      12.766   5.522  22.591  0.00  0.00    +0.002 C 
ATOM     13  CG1 VAL A   2      14.829   6.621  21.777  0.00  0.00    +0.002 C 
ENDBRANCH  10  11
BRANCH  10  14
ATOM     14  C   VAL A   2      13.022   6.948  25.153  0.00  0.00    +0.227 C 
ATOM     15  O   VAL A   2      13.551   6.277  26.037  0.00  0.00    -0.286 OA
ENDBRANCH  10  14
ENDBRANCH   2  10
TORSDOF 6
REMARK  Name = ../refined-set-2016/1zfq/1zfq_pocket.pdb
REMARK  147 active torsions:
REMARK  status: ('A' for Active; 'I' for Inactive)
REMARK    1  A    between atoms: _1  and  _3
REMARK    2  A    between atoms: _3  and  _4
REMARK    3  A    between atoms: _3  and  _6
REMARK    4  A    between atoms: _6  and  _7
REMARK    5  A    between atoms: _17  and  _19
REMARK    6  A    between atoms: _19  and  _20
REMARK    7  A    between atoms: _19  and  _22
REMARK    8  A    between atoms: _22  and  _23
REMARK    9  A    between atoms: _28  and  _29
REMARK   10  A    between atoms: _31  and  _33
REMARK   11  A    between atoms: _33  and  _34
REMARK   12  A    between atoms: _33  and  _36
REMARK   13  A    between atoms: _36  and  _37
REMARK   14  A    between atoms: _40  and  _41
REMARK   15  A    between atoms: _46  and  _48
REMARK   16  A    between atoms: _48  and  _49
REMARK   17  A    between atoms: _48  and  _51
REMARK   18  A    between atoms: _51  and  _52
REMARK   19  A    between atoms: _57  and  _59
REMARK   20  A    between atoms: _59  and  _60
REMARK   21  A    between atoms: _59  and  _62
REMARK   22  A    between atoms: _62  and  _63
REMARK   23  A    between atoms: _68  and  _70
REMARK   24  A    between atoms: _70  and  _71
REMARK   25  A    between atoms: _74  and  _76
REMARK   26  A    between atoms: _76  and  _77
REMARK   27  A    between atoms: _76  and  _79
REMARK   28  A    between atoms: _79  and  _80
REMARK   29  A    between atoms: _85  and  _87
REMARK   30  A    between atoms: _87  and  _88
REMARK   31  A    between atoms: _87  and  _90
REMARK   32  A    between atoms: _90  and  _91
REMARK   33  A    between atoms: _94  and  _96
REMARK   34  A    between atoms: _96  and  _97
REMARK   35  A    between atoms: _96  and  _99
REMARK   36  A    between atoms: _99  and  _100
REMARK   37  A    between atoms: _100  and  _101
REMARK   38  A    between atoms: _106  and  _108
REMARK   39  A    between atoms: _108  and  _109
REMARK   40  A    between atoms: _108  and  _111
REMARK   41  A    between atoms: _111  and  _112
REMARK   42  A    between atoms: _118  and  _120
REMARK   43  A    between atoms: _131  and  _134
REMARK   44  A    between atoms: _134  and  _135
REMARK   45  A    between atoms: _143  and  _144
REMARK   46  A    between atoms: _152  and  _154
REMARK   47  A    between atoms: _154  and  _155
REMARK   48  A    between atoms: _154  and  _157
REMARK   49  A    between atoms: _157  and  _158
REMARK   50  A    between atoms: _158  and  _159
REMARK   51  A    between atoms: _162  and  _164
REMARK   52  A    between atoms: _164  and  _165
REMARK   53  A    between atoms: _164  and  _167
REMARK   54  A    between atoms: _167  and  _168
REMARK   55  A    between atoms: _173  and  _175
REMARK   56  A    between atoms: _175  and  _176
REMARK   57  A    between atoms: _175  and  _178
REMARK   58  A    between atoms: _178  and  _179
REMARK   59  A    between atoms: _179  and  _180
REMARK   60  A    between atoms: _183  and  _185
REMARK   61  A    between atoms: _185  and  _186
REMARK   62  A    between atoms: _185  and  _188
REMARK   63  A    between atoms: _188  and  _189
REMARK   64  A    between atoms: _192  and  _194
REMARK   65  A    between atoms: _194  and  _195
REMARK   66  A    between atoms: _194  and  _197
REMARK   67  A    between atoms: _197  and  _198
REMARK   68  A    between atoms: _199  and  ZN_414
REMARK   69  A    between atoms: _203  and  _205
REMARK   70  A    between atoms: _205  and  _206
REMARK   71  A    between atoms: _205  and  _208
REMARK   72  A    between atoms: _208  and  _209
REMARK   73  A    between atoms: _212  and  _214
REMARK   74  A    between atoms: _214  and  _215
REMARK   75  A    between atoms: _214  and  _217
REMARK   76  A    between atoms: _220  and  _222
REMARK   77  A    between atoms: _222  and  _223
REMARK   78  A    between atoms: _222  and  _225
REMARK   79  A    between atoms: _225  and  _226
REMARK   80  A    between atoms: _231  and  _233
REMARK   81  A    between atoms: _233  and  _234
REMARK   82  A    between atoms: _233  and  _236
REMARK   83  A    between atoms: _236  and  _237
REMARK   84  A    between atoms: _243  and  _245
REMARK   85  A    between atoms: _245  and  _246
REMARK   86  A    between atoms: _245  and  _248
REMARK   87  A    between atoms: _251  and  _253
REMARK   88  A    between atoms: _253  and  _254
REMARK   89  A    between atoms: _253  and  _256
REMARK   90  A    between atoms: _256  and  _257
REMARK   91  A    between atoms: _260  and  _262
REMARK   92  A    between atoms: _262  and  _263
REMARK   93  A    between atoms: _266  and  _268
REMARK   94  A    between atoms: _268  and  _269
REMARK   95  A    between atoms: _268  and  _271
REMARK   96  A    between atoms: _274  and  _276
REMARK   97  A    between atoms: _276  and  _277
REMARK   98  A    between atoms: _276  and  _279
REMARK   99  A    between atoms: _279  and  _280
REMARK  100  A    between atoms: _283  and  _285
REMARK  101  A    between atoms: _285  and  _286
REMARK  102  A    between atoms: _288  and  _290
REMARK  103  A    between atoms: _290  and  _291
REMARK  104  A    between atoms: _290  and  _293
REMARK  105  A    between atoms: _293  and  _294
REMARK  106  A    between atoms: _296  and  _298
REMARK  107  A    between atoms: _298  and  _299
REMARK  108  A    between atoms: _298  and  _301
REMARK  109  A    between atoms: _301  and  _302
REMARK  110  A    between atoms: _305  and  _307
REMARK  111  A    between atoms: _307  and  _308
REMARK  112  A    between atoms: _307  and  _310
REMARK  113  A    between atoms: _310  and  _311
REMARK  114  A    between atoms: _314  and  _316
REMARK  115  A    between atoms: _316  and  _317
REMARK  116  A    between atoms: _316  and  _319
REMARK  117  A    between atoms: _319  and  _320
REMARK  118  A    between atoms: _324  and  _325
REMARK  119  A    between atoms: _331  and  _332
REMARK  120  A    between atoms: _337  and  _339
REMARK  121  A    between atoms: _339  and  _340
REMARK  122  A    between atoms: _339  and  _342
REMARK  123  A    between atoms: _342  and  _343
REMARK  124  A    between atoms: _346  and  _348
REMARK  125  A    between atoms: _348  and  _349
REMARK  126  A    between atoms: _348  and  _351
REMARK  127  A    between atoms: _351  and  _352
REMARK  128  A    between atoms: _355  and  _357
REMARK  129  A    between atoms: _357  and  _358
REMARK  130  A    between atoms: _357  and  _360
REMARK  131  A    between atoms: _362  and  _364
REMARK  132  A    between atoms: _364  and  _365
REMARK  133  A    between atoms: _364  and  _367
REMARK  134  A    between atoms: _370  and  _372
REMARK  135  A    between atoms: _372  and  _373
REMARK  136  A    between atoms: _372  and  _375
REMARK  137  A    between atoms: _375  and  _376
REMARK  138  A    between atoms: _386  and  _388
REMARK  139  A    between atoms: _388  and  _389
REMARK  140  A    between atoms: _388  and  _391
REMARK  141  A    between atoms: _391  and  _392
REMARK  142  A    between atoms: _397  and  _399
REMARK  143  A    between atoms: _399  and  _400
REMARK  144  A    between atoms: _399  and  _402
REMARK  145  A    between atoms: _402  and  _403
REMARK  146  A    between atoms: _403  and  _404
REMARK  147  A    between atoms: _404  and  _405
REMARK                            x       y       z     vdW  Elec       q    Type
REMARK                         _______ _______ _______ _____ _____    ______ ____
ROOT
ATOM      1  CG  TRP A   1      12.270   1.899  24.133  0.00  0.00    -0.002 A 
ATOM      2  CD1 TRP A   1      13.488   2.467  24.316  0.00  0.00    +0.068 A 
ATOM      3  NE1 TRP A   1      14.226   2.429  23.146  0.00  0.00    -0.352 N 
ATOM      4  HE1 TRP A   1      15.191   2.796  23.017  0.00  0.00    +0.166 HD
ATOM      5  CE2 TRP A   1      13.460   1.824  22.193  0.00  0.00    +0.056 A 
ATOM      6  CZ2 TRP A   1      13.721   1.542  20.862  0.00  0.00    +0.017 A 
ATOM      7  CH2 TRP A   1      12.761   0.916  20.144  0.00  0.00    +0.001 A 
ATOM      8  CZ3 TRP A   1      11.537   0.563  20.670  0.00  0.00    +0.000 A 
ATOM      9  CE3 TRP A   1      11.246   0.828  21.978  0.00  0.00    +0.001 A 
ATOM     10  CD2 TRP A   1      12.218   1.471  22.764  0.00  0.00    +0.013 A 
ENDROOT
BRANCH   1  11
ATOM     11  CB  TRP A   1      11.128   1.718  25.110  0.00  0.00    +0.053 C 
BRANCH  11  12
ATOM     12  CA  TRP A   1      10.136   2.893  24.891  0.00  0.00    +0.137 C 
BRANCH  12  13
ATOM     13  N   TRP A   1      10.570   4.096  25.569  0.00  0.00    -0.239 NA
ATOM     14  H   TRP A   1      11.178   3.999  26.408  0.00  0.00    +0.142 HD
ENDBRANCH  12  13
BRANCH  12  15
ATOM     15  C   TRP A   1       8.770   2.464  25.421  0.00  0.00    +0.224 C 
ATOM     16  O   TRP A   1       8.569   2.441  26.636  0.00  0.00    -0.287 OA
ENDBRANCH  12  15
ENDBRANCH  11  12
ENDBRANCH   1  11
TORSDOF 4
REMARK  Name = ../refined-set-2016/1zfq/1zfq_pocket.pdb
REMARK  147 active torsions:
REMARK  status: ('A' for Active; 'I' for Inactive)
REMARK    1  A    between atoms: _1  and  _3
REMARK    2  A    between atoms: _3  and  _4
REMARK    3  A    between atoms: _3  and  _6
REMARK    4  A    between atoms: _6  and  _7
REMARK    5  A    between atoms: _17  and  _19
REMARK    6  A    between atoms: _19  and  _20
REMARK    7  A    between atoms: _19  and  _22
REMARK    8  A    between atoms: _22  and  _23
REMARK    9  A    between atoms: _28  and  _29
REMARK   10  A    between atoms: _31  and  _33
REMARK   11  A    between atoms: _33  and  _34
REMARK   12  A    between atoms: _33  and  _36
REMARK   13  A    between atoms: _36  and  _37
REMARK   14  A    between atoms: _40  and  _41
REMARK   15  A    between atoms: _46  and  _48
REMARK   16  A    between atoms: _48  and  _49
REMARK   17  A    between atoms: _48  and  _51
REMARK   18  A    between atoms: _51  and  _52
REMARK   19  A    between atoms: _57  and  _59
REMARK   20  A    between atoms: _59  and  _60
REMARK   21  A    between atoms: _59  and  _62
REMARK   22  A    between atoms: _62  and  _63
REMARK   23  A    between atoms: _68  and  _70
REMARK   24  A    between atoms: _70  and  _71
REMARK   25  A    between atoms: _74  and  _76
REMARK   26  A    between atoms: _76  and  _77
REMARK   27  A    between atoms: _76  and  _79
REMARK   28  A    between atoms: _79  and  _80
REMARK   29  A    between atoms: _85  and  _87
REMARK   30  A    between atoms: _87  and  _88
REMARK   31  A    between atoms: _87  and  _90
REMARK   32  A    between atoms: _90  and  _91
REMARK   33  A    between atoms: _94  and  _96
REMARK   34  A    between atoms: _96  and  _97
REMARK   35  A    between atoms: _96  and  _99
REMARK   36  A    between atoms: _99  and  _100
REMARK   37  A    between atoms: _100  and  _101
REMARK   38  A    between atoms: _106  and  _108
REMARK   39  A    between atoms: _108  and  _109
REMARK   40  A    between atoms: _108  and  _111
REMARK   41  A    between atoms: _111  and  _112
REMARK   42  A    between atoms: _118  and  _120
REMARK   43  A    between atoms: _131  and  _134
REMARK   44  A    between atoms: _134  and  _135
REMARK   45  A    between atoms: _143  and  _144
REMARK   46  A    between atoms: _152  and  _154
REMARK   47  A    between atoms: _154  and  _155
REMARK   48  A    between atoms: _154  and  _157
REMARK   49  A    between atoms: _157  and  _158
REMARK   50  A    between atoms: _158  and  _159
REMARK   51  A    between atoms: _162  and  _164
REMARK   52  A    between atoms: _164  and  _165
REMARK   53  A    between atoms: _164  and  _167
REMARK   54  A    between atoms: _167  and  _168
REMARK   55  A    between atoms: _173  and  _175
REMARK   56  A    between atoms: _175  and  _176
REMARK   57  A    between atoms: _175  and  _178
REMARK   58  A    between atoms: _178  and  _179
REMARK   59  A    between atoms: _179  and  _180
REMARK   60  A    between atoms: _183  and  _185
REMARK   61  A    between atoms: _185  and  _186
REMARK   62  A    between atoms: _185  and  _188
REMARK   63  A    between atoms: _188  and  _189
REMARK   64  A    between atoms: _192  and  _194
REMARK   65  A    between atoms: _194  and  _195
REMARK   66  A    between atoms: _194  and  _197
REMARK   67  A    between atoms: _197  and  _198
REMARK   68  A    between atoms: _199  and  ZN_414
REMARK   69  A    between atoms: _203  and  _205
REMARK   70  A    between atoms: _205  and  _206
REMARK   71  A    between atoms: _205  and  _208
REMARK   72  A    between atoms: _208  and  _209
REMARK   73  A    between atoms: _212  and  _214
REMARK   74  A    between atoms: _214  and  _215
REMARK   75  A    between atoms: _214  and  _217
REMARK   76  A    between atoms: _220  and  _222
REMARK   77  A    between atoms: _222  and  _223
REMARK   78  A    between atoms: _222  and  _225
REMARK   79  A    between atoms: _225  and  _226
REMARK   80  A    between atoms: _231  and  _233
REMARK   81  A    between atoms: _233  and  _234
REMARK   82  A    between atoms: _233  and  _236
REMARK   83  A    between atoms: _236  and  _237
REMARK   84  A    between atoms: _243  and  _245
REMARK   85  A    between atoms: _245  and  _246
REMARK   86  A    between atoms: _245  and  _248
REMARK   87  A    between atoms: _251  and  _253
REMARK   88  A    between atoms: _253  and  _254
REMARK   89  A    between atoms: _253  and  _256
REMARK   90  A    between atoms: _256  and  _257
REMARK   91  A    between atoms: _260  and  _262
REMARK   92  A    between atoms: _262  and  _263
REMARK   93  A    between atoms: _266  and  _268
REMARK   94  A    between atoms: _268  and  _269
REMARK   95  A    between atoms: _268  and  _271
REMARK   96  A    between atoms: _274  and  _276
REMARK   97  A    between atoms: _276  and  _277
REMARK   98  A    between atoms: _276  and  _279
REMARK   99  A    between atoms: _279  and  _280
REMARK  100  A    between atoms: _283  and  _285
REMARK  101  A    between atoms: _285  and  _286
REMARK  102  A    between atoms: _288  and  _290
REMARK  103  A    between atoms: _290  and  _291
REMARK  104  A    between atoms: _290  and  _293
REMARK  105  A    between atoms: _293  and  _294
REMARK  106  A    between atoms: _296  and  _298
REMARK  107  A    between atoms: _298  and  _299
REMARK  108  A    between atoms: _298  and  _301
REMARK  109  A    between atoms: _301  and  _302
REMARK  110  A    between atoms: _305  and  _307
REMARK  111  A    between atoms: _307  and  _308
REMARK  112  A    between atoms: _307  and  _310
REMARK  113  A    between atoms: _310  and  _311
REMARK  114  A    between atoms: _314  and  _316
REMARK  115  A    between atoms: _316  and  _317
REMARK  116  A    between atoms: _316  and  _319
REMARK  117  A    between atoms: _319  and  _320
REMARK  118  A    between atoms: _324  and  _325
REMARK  119  A    between atoms: _331  and  _332
REMARK  120  A    between atoms: _337  and  _339
REMARK  121  A    between atoms: _339  and  _340
REMARK  122  A    between atoms: _339  and  _342
REMARK  123  A    between atoms: _342  and  _343
REMARK  124  A    between atoms: _346  and  _348
REMARK  125  A    between atoms: _348  and  _349
REMARK  126  A    between atoms: _348  and  _351
REMARK  127  A    between atoms: _351  and  _352
REMARK  128  A    between atoms: _355  and  _357
REMARK  129  A    between atoms: _357  and  _358
REMARK  130  A    between atoms: _357  and  _360
REMARK  131  A    between atoms: _362  and  _364
REMARK  132  A    between atoms: _364  and  _365
REMARK  133  A    between atoms: _364  and  _367
REMARK  134  A    between atoms: _370  and  _372
REMARK  135  A    between atoms: _372  and  _373
REMARK  136  A    between atoms: _372  and  _375
REMARK  137  A    between atoms: _375  and  _376
REMARK  138  A    between atoms: _386  and  _388
REMARK  139  A    between atoms: _388  and  _389
REMARK  140  A    between atoms: _388  and  _391
REMARK  141  A    between atoms: _391  and  _392
REMARK  142  A    between atoms: _397  and  _399
REMARK  143  A    between atoms: _399  and  _400
REMARK  144  A    between atoms: _399  and  _402
REMARK  145  A    between atoms: _402  and  _403
REMARK  146  A    between atoms: _403  and  _404
REMARK  147  A    between atoms: _404  and  _405
REMARK                            x       y       z     vdW  Elec       q    Type
REMARK                         _______ _______ _______ _____ _____    ______ ____
ROOT
ATOM      1  CB  ASN A   1      19.100  -5.593  10.447  0.00  0.00    +0.110 C 
ENDROOT
BRANCH   1   2
ATOM      2  CG  ASN A   1      17.619  -5.787  10.238  0.00  0.00    +0.221 C 
ATOM      3  OD1 ASN A   1      16.956  -6.658  10.792  0.00  0.00    -0.275 OA
ATOM      4  ND2 ASN A   1      17.096  -4.890   9.403  0.00  0.00    -0.329 N 
ATOM      5 HD21 ASN A   1      16.078  -4.907   9.193  0.00  0.00    +0.145 HD
ATOM      6 HD22 ASN A   1      17.706  -4.173   8.961  0.00  0.00    +0.145 HD
ENDBRANCH   1   2
BRANCH   1   7
ATOM      7  CA  ASN A   1      19.658  -6.437  11.585  0.00  0.00    +0.142 C 
BRANCH   7   8
ATOM      8  N   ASN A   1      19.351  -7.833  11.331  0.00  0.00    -0.239 NA
ATOM      9  H   ASN A   1      18.447  -8.092  10.887  0.00  0.00    +0.142 HD
ENDBRANCH   7   8
BRANCH   7  10
ATOM     10  C   ASN A   1      19.103  -5.994  12.939  0.00  0.00    +0.225 C 
ATOM     11  O   ASN A   1      18.447  -4.952  13.009  0.00  0.00    -0.287 OA
ENDBRANCH   7  10
ENDBRANCH   1   7
TORSDOF 4
REMARK  Name = ../refined-set-2016/1zfq/1zfq_pocket.pdb
REMARK  147 active torsions:
REMARK  status: ('A' for Active; 'I' for Inactive)
REMARK    1  A    between atoms: _1  and  _3
REMARK    2  A    between atoms: _3  and  _4
REMARK    3  A    between atoms: _3  and  _6
REMARK    4  A    between atoms: _6  and  _7
REMARK    5  A    between atoms: _17  and  _19
REMARK    6  A    between atoms: _19  and  _20
REMARK    7  A    between atoms: _19  and  _22
REMARK    8  A    between atoms: _22  and  _23
REMARK    9  A    between atoms: _28  and  _29
REMARK   10  A    between atoms: _31  and  _33
REMARK   11  A    between atoms: _33  and  _34
REMARK   12  A    between atoms: _33  and  _36
REMARK   13  A    between atoms: _36  and  _37
REMARK   14  A    between atoms: _40  and  _41
REMARK   15  A    between atoms: _46  and  _48
REMARK   16  A    between atoms: _48  and  _49
REMARK   17  A    between atoms: _48  and  _51
REMARK   18  A    between atoms: _51  and  _52
REMARK   19  A    between atoms: _57  and  _59
REMARK   20  A    between atoms: _59  and  _60
REMARK   21  A    between atoms: _59  and  _62
REMARK   22  A    between atoms: _62  and  _63
REMARK   23  A    between atoms: _68  and  _70
REMARK   24  A    between atoms: _70  and  _71
REMARK   25  A    between atoms: _74  and  _76
REMARK   26  A    between atoms: _76  and  _77
REMARK   27  A    between atoms: _76  and  _79
REMARK   28  A    between atoms: _79  and  _80
REMARK   29  A    between atoms: _85  and  _87
REMARK   30  A    between atoms: _87  and  _88
REMARK   31  A    between atoms: _87  and  _90
REMARK   32  A    between atoms: _90  and  _91
REMARK   33  A    between atoms: _94  and  _96
REMARK   34  A    between atoms: _96  and  _97
REMARK   35  A    between atoms: _96  and  _99
REMARK   36  A    between atoms: _99  and  _100
REMARK   37  A    between atoms: _100  and  _101
REMARK   38  A    between atoms: _106  and  _108
REMARK   39  A    between atoms: _108  and  _109
REMARK   40  A    between atoms: _108  and  _111
REMARK   41  A    between atoms: _111  and  _112
REMARK   42  A    between atoms: _118  and  _120
REMARK   43  A    between atoms: _131  and  _134
REMARK   44  A    between atoms: _134  and  _135
REMARK   45  A    between atoms: _143  and  _144
REMARK   46  A    between atoms: _152  and  _154
REMARK   47  A    between atoms: _154  and  _155
REMARK   48  A    between atoms: _154  and  _157
REMARK   49  A    between atoms: _157  and  _158
REMARK   50  A    between atoms: _158  and  _159
REMARK   51  A    between atoms: _162  and  _164
REMARK   52  A    between atoms: _164  and  _165
REMARK   53  A    between atoms: _164  and  _167
REMARK   54  A    between atoms: _167  and  _168
REMARK   55  A    between atoms: _173  and  _175
REMARK   56  A    between atoms: _175  and  _176
REMARK   57  A    between atoms: _175  and  _178
REMARK   58  A    between atoms: _178  and  _179
REMARK   59  A    between atoms: _179  and  _180
REMARK   60  A    between atoms: _183  and  _185
REMARK   61  A    between atoms: _185  and  _186
REMARK   62  A    between atoms: _185  and  _188
REMARK   63  A    between atoms: _188  and  _189
REMARK   64  A    between atoms: _192  and  _194
REMARK   65  A    between atoms: _194  and  _195
REMARK   66  A    between atoms: _194  and  _197
REMARK   67  A    between atoms: _197  and  _198
REMARK   68  A    between atoms: _199  and  ZN_414
REMARK   69  A    between atoms: _203  and  _205
REMARK   70  A    between atoms: _205  and  _206
REMARK   71  A    between atoms: _205  and  _208
REMARK   72  A    between atoms: _208  and  _209
REMARK   73  A    between atoms: _212  and  _214
REMARK   74  A    between atoms: _214  and  _215
REMARK   75  A    between atoms: _214  and  _217
REMARK   76  A    between atoms: _220  and  _222
REMARK   77  A    between atoms: _222  and  _223
REMARK   78  A    between atoms: _222  and  _225
REMARK   79  A    between atoms: _225  and  _226
REMARK   80  A    between atoms: _231  and  _233
REMARK   81  A    between atoms: _233  and  _234
REMARK   82  A    between atoms: _233  and  _236
REMARK   83  A    between atoms: _236  and  _237
REMARK   84  A    between atoms: _243  and  _245
REMARK   85  A    between atoms: _245  and  _246
REMARK   86  A    between atoms: _245  and  _248
REMARK   87  A    between atoms: _251  and  _253
REMARK   88  A    between atoms: _253  and  _254
REMARK   89  A    between atoms: _253  and  _256
REMARK   90  A    between atoms: _256  and  _257
REMARK   91  A    between atoms: _260  and  _262
REMARK   92  A    between atoms: _262  and  _263
REMARK   93  A    between atoms: _266  and  _268
REMARK   94  A    between atoms: _268  and  _269
REMARK   95  A    between atoms: _268  and  _271
REMARK   96  A    between atoms: _274  and  _276
REMARK   97  A    between atoms: _276  and  _277
REMARK   98  A    between atoms: _276  and  _279
REMARK   99  A    between atoms: _279  and  _280
REMARK  100  A    between atoms: _283  and  _285
REMARK  101  A    between atoms: _285  and  _286
REMARK  102  A    between atoms: _288  and  _290
REMARK  103  A    between atoms: _290  and  _291
REMARK  104  A    between atoms: _290  and  _293
REMARK  105  A    between atoms: _293  and  _294
REMARK  106  A    between atoms: _296  and  _298
REMARK  107  A    between atoms: _298  and  _299
REMARK  108  A    between atoms: _298  and  _301
REMARK  109  A    between atoms: _301  and  _302
REMARK  110  A    between atoms: _305  and  _307
REMARK  111  A    between atoms: _307  and  _308
REMARK  112  A    between atoms: _307  and  _310
REMARK  113  A    between atoms: _310  and  _311
REMARK  114  A    between atoms: _314  and  _316
REMARK  115  A    between atoms: _316  and  _317
REMARK  116  A    between atoms: _316  and  _319
REMARK  117  A    between atoms: _319  and  _320
REMARK  118  A    between atoms: _324  and  _325
REMARK  119  A    between atoms: _331  and  _332
REMARK  120  A    between atoms: _337  and  _339
REMARK  121  A    between atoms: _339  and  _340
REMARK  122  A    between atoms: _339  and  _342
REMARK  123  A    between atoms: _342  and  _343
REMARK  124  A    between atoms: _346  and  _348
REMARK  125  A    between atoms: _348  and  _349
REMARK  126  A    between atoms: _348  and  _351
REMARK  127  A    between atoms: _351  and  _352
REMARK  128  A    between atoms: _355  and  _357
REMARK  129  A    between atoms: _357  and  _358
REMARK  130  A    between atoms: _357  and  _360
REMARK  131  A    between atoms: _362  and  _364
REMARK  132  A    between atoms: _364  and  _365
REMARK  133  A    between atoms: _364  and  _367
REMARK  134  A    between atoms: _370  and  _372
REMARK  135  A    between atoms: _372  and  _373
REMARK  136  A    between atoms: _372  and  _375
REMARK  137  A    between atoms: _375  and  _376
REMARK  138  A    between atoms: _386  and  _388
REMARK  139  A    between atoms: _388  and  _389
REMARK  140  A    between atoms: _388  and  _391
REMARK  141  A    between atoms: _391  and  _392
REMARK  142  A    between atoms: _397  and  _399
REMARK  143  A    between atoms: _399  and  _400
REMARK  144  A    between atoms: _399  and  _402
REMARK  145  A    between atoms: _402  and  _403
REMARK  146  A    between atoms: _403  and  _404
REMARK  147  A    between atoms: _404  and  _405
REMARK                            x       y       z     vdW  Elec       q    Type
REMARK                         _______ _______ _______ _____ _____    ______ ____
ROOT
ATOM      1  NE  ARG A   1      23.335  -1.964  21.122  0.00  0.00    -0.265 N 
ATOM      2  CZ  ARG A   1      23.532  -0.964  21.962  0.00  0.00    +0.342 C 
ATOM      3  NH2 ARG A   1      24.774  -0.733  22.409  0.00  0.00    -0.292 N 
ATOM      4 HH21 ARG A   1      24.951   0.049  23.071  0.00  0.00    +0.255 HD
ATOM      5 HH22 ARG A   1      25.561  -1.336  22.094  0.00  0.00    +0.255 HD
ATOM      6  NH1 ARG A   1      22.537  -0.191  22.339  0.00  0.00    -0.292 N 
ATOM      7 HH11 ARG A   1      22.709   0.592  23.001  0.00  0.00    +0.255 HD
ATOM      8 HH12 ARG A   1      21.578  -0.363  21.975  0.00  0.00    +0.255 HD
ATOM      9  HE  ARG A   1      24.165  -2.537  20.867  0.00  0.00    +0.259 HD
ENDROOT
BRANCH   1  10
ATOM     10  CD  ARG A   1      22.060  -2.340  20.518  0.00  0.00    +0.174 C 
BRANCH  10  11
ATOM     11  CG  ARG A   1      22.169  -3.668  19.790  0.00  0.00    +0.045 C 
BRANCH  11  12
ATOM     12  CB  ARG A   1      21.015  -3.912  18.837  0.00  0.00    +0.029 C 
BRANCH  12  13
ATOM     13  CA  ARG A   1      20.928  -5.344  18.329  0.00  0.00    +0.133 C 
BRANCH  13  14
ATOM     14  N   ARG A   1      19.985  -5.491  17.209  0.00  0.00    -0.239 NA
ATOM     15  H   ARG A   1      19.173  -4.843  17.159  0.00  0.00    +0.142 HD
ENDBRANCH  13  14
BRANCH  13  16
ATOM     16  C   ARG A   1      20.476  -6.255  19.459  0.00  0.00    +0.224 C 
ATOM     17  O   ARG A   1      19.276  -6.255  19.783  0.00  0.00    -0.287 OA
ENDBRANCH  13  16
ENDBRANCH  12  13
ENDBRANCH  11  12
ENDBRANCH  10  11
ENDBRANCH   1  10
TORSDOF 6
REMARK  Name = ../refined-set-2016/1zfq/1zfq_pocket.pdb
REMARK  147 active torsions:
REMARK  status: ('A' for Active; 'I' for Inactive)
REMARK    1  A    between atoms: _1  and  _3
REMARK    2  A    between atoms: _3  and  _4
REMARK    3  A    between atoms: _3  and  _6
REMARK    4  A    between atoms: _6  and  _7
REMARK    5  A    between atoms: _17  and  _19
REMARK    6  A    between atoms: _19  and  _20
REMARK    7  A    between atoms: _19  and  _22
REMARK    8  A    between atoms: _22  and  _23
REMARK    9  A    between atoms: _28  and  _29
REMARK   10  A    between atoms: _31  and  _33
REMARK   11  A    between atoms: _33  and  _34
REMARK   12  A    between atoms: _33  and  _36
REMARK   13  A    between atoms: _36  and  _37
REMARK   14  A    between atoms: _40  and  _41
REMARK   15  A    between atoms: _46  and  _48
REMARK   16  A    between atoms: _48  and  _49
REMARK   17  A    between atoms: _48  and  _51
REMARK   18  A    between atoms: _51  and  _52
REMARK   19  A    between atoms: _57  and  _59
REMARK   20  A    between atoms: _59  and  _60
REMARK   21  A    between atoms: _59  and  _62
REMARK   22  A    between atoms: _62  and  _63
REMARK   23  A    between atoms: _68  and  _70
REMARK   24  A    between atoms: _70  and  _71
REMARK   25  A    between atoms: _74  and  _76
REMARK   26  A    between atoms: _76  and  _77
REMARK   27  A    between atoms: _76  and  _79
REMARK   28  A    between atoms: _79  and  _80
REMARK   29  A    between atoms: _85  and  _87
REMARK   30  A    between atoms: _87  and  _88
REMARK   31  A    between atoms: _87  and  _90
REMARK   32  A    between atoms: _90  and  _91
REMARK   33  A    between atoms: _94  and  _96
REMARK   34  A    between atoms: _96  and  _97
REMARK   35  A    between atoms: _96  and  _99
REMARK   36  A    between atoms: _99  and  _100
REMARK   37  A    between atoms: _100  and  _101
REMARK   38  A    between atoms: _106  and  _108
REMARK   39  A    between atoms: _108  and  _109
REMARK   40  A    between atoms: _108  and  _111
REMARK   41  A    between atoms: _111  and  _112
REMARK   42  A    between atoms: _118  and  _120
REMARK   43  A    between atoms: _131  and  _134
REMARK   44  A    between atoms: _134  and  _135
REMARK   45  A    between atoms: _143  and  _144
REMARK   46  A    between atoms: _152  and  _154
REMARK   47  A    between atoms: _154  and  _155
REMARK   48  A    between atoms: _154  and  _157
REMARK   49  A    between atoms: _157  and  _158
REMARK   50  A    between atoms: _158  and  _159
REMARK   51  A    between atoms: _162  and  _164
REMARK   52  A    between atoms: _164  and  _165
REMARK   53  A    between atoms: _164  and  _167
REMARK   54  A    between atoms: _167  and  _168
REMARK   55  A    between atoms: _173  and  _175
REMARK   56  A    between atoms: _175  and  _176
REMARK   57  A    between atoms: _175  and  _178
REMARK   58  A    between atoms: _178  and  _179
REMARK   59  A    between atoms: _179  and  _180
REMARK   60  A    between atoms: _183  and  _185
REMARK   61  A    between atoms: _185  and  _186
REMARK   62  A    between atoms: _185  and  _188
REMARK   63  A    between atoms: _188  and  _189
REMARK   64  A    between atoms: _192  and  _194
REMARK   65  A    between atoms: _194  and  _195
REMARK   66  A    between atoms: _194  and  _197
REMARK   67  A    between atoms: _197  and  _198
REMARK   68  A    between atoms: _199  and  ZN_414
REMARK   69  A    between atoms: _203  and  _205
REMARK   70  A    between atoms: _205  and  _206
REMARK   71  A    between atoms: _205  and  _208
REMARK   72  A    between atoms: _208  and  _209
REMARK   73  A    between atoms: _212  and  _214
REMARK   74  A    between atoms: _214  and  _215
REMARK   75  A    between atoms: _214  and  _217
REMARK   76  A    between atoms: _220  and  _222
REMARK   77  A    between atoms: _222  and  _223
REMARK   78  A    between atoms: _222  and  _225
REMARK   79  A    between atoms: _225  and  _226
REMARK   80  A    between atoms: _231  and  _233
REMARK   81  A    between atoms: _233  and  _234
REMARK   82  A    between atoms: _233  and  _236
REMARK   83  A    between atoms: _236  and  _237
REMARK   84  A    between atoms: _243  and  _245
REMARK   85  A    between atoms: _245  and  _246
REMARK   86  A    between atoms: _245  and  _248
REMARK   87  A    between atoms: _251  and  _253
REMARK   88  A    between atoms: _253  and  _254
REMARK   89  A    between atoms: _253  and  _256
REMARK   90  A    between atoms: _256  and  _257
REMARK   91  A    between atoms: _260  and  _262
REMARK   92  A    between atoms: _262  and  _263
REMARK   93  A    between atoms: _266  and  _268
REMARK   94  A    between atoms: _268  and  _269
REMARK   95  A    between atoms: _268  and  _271
REMARK   96  A    between atoms: _274  and  _276
REMARK   97  A    between atoms: _276  and  _277
REMARK   98  A    between atoms: _276  and  _279
REMARK   99  A    between atoms: _279  and  _280
REMARK  100  A    between atoms: _283  and  _285
REMARK  101  A    between atoms: _285  and  _286
REMARK  102  A    between atoms: _288  and  _290
REMARK  103  A    between atoms: _290  and  _291
REMARK  104  A    between atoms: _290  and  _293
REMARK  105  A    between atoms: _293  and  _294
REMARK  106  A    between atoms: _296  and  _298
REMARK  107  A    between atoms: _298  and  _299
REMARK  108  A    between atoms: _298  and  _301
REMARK  109  A    between atoms: _301  and  _302
REMARK  110  A    between atoms: _305  and  _307
REMARK  111  A    between atoms: _307  and  _308
REMARK  112  A    between atoms: _307  and  _310
REMARK  113  A    between atoms: _310  and  _311
REMARK  114  A    between atoms: _314  and  _316
REMARK  115  A    between atoms: _316  and  _317
REMARK  116  A    between atoms: _316  and  _319
REMARK  117  A    between atoms: _319  and  _320
REMARK  118  A    between atoms: _324  and  _325
REMARK  119  A    between atoms: _331  and  _332
REMARK  120  A    between atoms: _337  and  _339
REMARK  121  A    between atoms: _339  and  _340
REMARK  122  A    between atoms: _339  and  _342
REMARK  123  A    between atoms: _342  and  _343
REMARK  124  A    between atoms: _346  and  _348
REMARK  125  A    between atoms: _348  and  _349
REMARK  126  A    between atoms: _348  and  _351
REMARK  127  A    between atoms: _351  and  _352
REMARK  128  A    between atoms: _355  and  _357
REMARK  129  A    between atoms: _357  and  _358
REMARK  130  A    between atoms: _357  and  _360
REMARK  131  A    between atoms: _362  and  _364
REMARK  132  A    between atoms: _364  and  _365
REMARK  133  A    between atoms: _364  and  _367
REMARK  134  A    between atoms: _370  and  _372
REMARK  135  A    between atoms: _372  and  _373
REMARK  136  A    between atoms: _372  and  _375
REMARK  137  A    between atoms: _375  and  _376
REMARK  138  A    between atoms: _386  and  _388
REMARK  139  A    between atoms: _388  and  _389
REMARK  140  A    between atoms: _388  and  _391
REMARK  141  A    between atoms: _391  and  _392
REMARK  142  A    between atoms: _397  and  _399
REMARK  143  A    between atoms: _399  and  _400
REMARK  144  A    between atoms: _399  and  _402
REMARK  145  A    between atoms: _402  and  _403
REMARK  146  A    between atoms: _403  and  _404
REMARK  147  A    between atoms: _404  and  _405
REMARK                            x       y       z     vdW  Elec       q    Type
REMARK                         _______ _______ _______ _____ _____    ______ ____
ROOT
ATOM      1  O   HOH     1      19.887  -2.315  15.888  0.00  0.00    +0.000 OA
ENDROOT
TORSDOF 0
REMARK  Name = ../refined-set-2016/1zfq/1zfq_pocket.pdb
REMARK  147 active torsions:
REMARK  status: ('A' for Active; 'I' for Inactive)
REMARK    1  A    between atoms: _1  and  _3
REMARK    2  A    between atoms: _3  and  _4
REMARK    3  A    between atoms: _3  and  _6
REMARK    4  A    between atoms: _6  and  _7
REMARK    5  A    between atoms: _17  and  _19
REMARK    6  A    between atoms: _19  and  _20
REMARK    7  A    between atoms: _19  and  _22
REMARK    8  A    between atoms: _22  and  _23
REMARK    9  A    between atoms: _28  and  _29
REMARK   10  A    between atoms: _31  and  _33
REMARK   11  A    between atoms: _33  and  _34
REMARK   12  A    between atoms: _33  and  _36
REMARK   13  A    between atoms: _36  and  _37
REMARK   14  A    between atoms: _40  and  _41
REMARK   15  A    between atoms: _46  and  _48
REMARK   16  A    between atoms: _48  and  _49
REMARK   17  A    between atoms: _48  and  _51
REMARK   18  A    between atoms: _51  and  _52
REMARK   19  A    between atoms: _57  and  _59
REMARK   20  A    between atoms: _59  and  _60
REMARK   21  A    between atoms: _59  and  _62
REMARK   22  A    between atoms: _62  and  _63
REMARK   23  A    between atoms: _68  and  _70
REMARK   24  A    between atoms: _70  and  _71
REMARK   25  A    between atoms: _74  and  _76
REMARK   26  A    between atoms: _76  and  _77
REMARK   27  A    between atoms: _76  and  _79
REMARK   28  A    between atoms: _79  and  _80
REMARK   29  A    between atoms: _85  and  _87
REMARK   30  A    between atoms: _87  and  _88
REMARK   31  A    between atoms: _87  and  _90
REMARK   32  A    between atoms: _90  and  _91
REMARK   33  A    between atoms: _94  and  _96
REMARK   34  A    between atoms: _96  and  _97
REMARK   35  A    between atoms: _96  and  _99
REMARK   36  A    between atoms: _99  and  _100
REMARK   37  A    between atoms: _100  and  _101
REMARK   38  A    between atoms: _106  and  _108
REMARK   39  A    between atoms: _108  and  _109
REMARK   40  A    between atoms: _108  and  _111
REMARK   41  A    between atoms: _111  and  _112
REMARK   42  A    between atoms: _118  and  _120
REMARK   43  A    between atoms: _131  and  _134
REMARK   44  A    between atoms: _134  and  _135
REMARK   45  A    between atoms: _143  and  _144
REMARK   46  A    between atoms: _152  and  _154
REMARK   47  A    between atoms: _154  and  _155
REMARK   48  A    between atoms: _154  and  _157
REMARK   49  A    between atoms: _157  and  _158
REMARK   50  A    between atoms: _158  and  _159
REMARK   51  A    between atoms: _162  and  _164
REMARK   52  A    between atoms: _164  and  _165
REMARK   53  A    between atoms: _164  and  _167
REMARK   54  A    between atoms: _167  and  _168
REMARK   55  A    between atoms: _173  and  _175
REMARK   56  A    between atoms: _175  and  _176
REMARK   57  A    between atoms: _175  and  _178
REMARK   58  A    between atoms: _178  and  _179
REMARK   59  A    between atoms: _179  and  _180
REMARK   60  A    between atoms: _183  and  _185
REMARK   61  A    between atoms: _185  and  _186
REMARK   62  A    between atoms: _185  and  _188
REMARK   63  A    between atoms: _188  and  _189
REMARK   64  A    between atoms: _192  and  _194
REMARK   65  A    between atoms: _194  and  _195
REMARK   66  A    between atoms: _194  and  _197
REMARK   67  A    between atoms: _197  and  _198
REMARK   68  A    between atoms: _199  and  ZN_414
REMARK   69  A    between atoms: _203  and  _205
REMARK   70  A    between atoms: _205  and  _206
REMARK   71  A    between atoms: _205  and  _208
REMARK   72  A    between atoms: _208  and  _209
REMARK   73  A    between atoms: _212  and  _214
REMARK   74  A    between atoms: _214  and  _215
REMARK   75  A    between atoms: _214  and  _217
REMARK   76  A    between atoms: _220  and  _222
REMARK   77  A    between atoms: _222  and  _223
REMARK   78  A    between atoms: _222  and  _225
REMARK   79  A    between atoms: _225  and  _226
REMARK   80  A    between atoms: _231  and  _233
REMARK   81  A    between atoms: _233  and  _234
REMARK   82  A    between atoms: _233  and  _236
REMARK   83  A    between atoms: _236  and  _237
REMARK   84  A    between atoms: _243  and  _245
REMARK   85  A    between atoms: _245  and  _246
REMARK   86  A    between atoms: _245  and  _248
REMARK   87  A    between atoms: _251  and  _253
REMARK   88  A    between atoms: _253  and  _254
REMARK   89  A    between atoms: _253  and  _256
REMARK   90  A    between atoms: _256  and  _257
REMARK   91  A    between atoms: _260  and  _262
REMARK   92  A    between atoms: _262  and  _263
REMARK   93  A    between atoms: _266  and  _268
REMARK   94  A    between atoms: _268  and  _269
REMARK   95  A    between atoms: _268  and  _271
REMARK   96  A    between atoms: _274  and  _276
REMARK   97  A    between atoms: _276  and  _277
REMARK   98  A    between atoms: _276  and  _279
REMARK   99  A    between atoms: _279  and  _280
REMARK  100  A    between atoms: _283  and  _285
REMARK  101  A    between atoms: _285  and  _286
REMARK  102  A    between atoms: _288  and  _290
REMARK  103  A    between atoms: _290  and  _291
REMARK  104  A    between atoms: _290  and  _293
REMARK  105  A    between atoms: _293  and  _294
REMARK  106  A    between atoms: _296  and  _298
REMARK  107  A    between atoms: _298  and  _299
REMARK  108  A    between atoms: _298  and  _301
REMARK  109  A    between atoms: _301  and  _302
REMARK  110  A    between atoms: _305  and  _307
REMARK  111  A    between atoms: _307  and  _308
REMARK  112  A    between atoms: _307  and  _310
REMARK  113  A    between atoms: _310  and  _311
REMARK  114  A    between atoms: _314  and  _316
REMARK  115  A    between atoms: _316  and  _317
REMARK  116  A    between atoms: _316  and  _319
REMARK  117  A    between atoms: _319  and  _320
REMARK  118  A    between atoms: _324  and  _325
REMARK  119  A    between atoms: _331  and  _332
REMARK  120  A    between atoms: _337  and  _339
REMARK  121  A    between atoms: _339  and  _340
REMARK  122  A    between atoms: _339  and  _342
REMARK  123  A    between atoms: _342  and  _343
REMARK  124  A    between atoms: _346  and  _348
REMARK  125  A    between atoms: _348  and  _349
REMARK  126  A    between atoms: _348  and  _351
REMARK  127  A    between atoms: _351  and  _352
REMARK  128  A    between atoms: _355  and  _357
REMARK  129  A    between atoms: _357  and  _358
REMARK  130  A    between atoms: _357  and  _360
REMARK  131  A    between atoms: _362  and  _364
REMARK  132  A    between atoms: _364  and  _365
REMARK  133  A    between atoms: _364  and  _367
REMARK  134  A    between atoms: _370  and  _372
REMARK  135  A    between atoms: _372  and  _373
REMARK  136  A    between atoms: _372  and  _375
REMARK  137  A    between atoms: _375  and  _376
REMARK  138  A    between atoms: _386  and  _388
REMARK  139  A    between atoms: _388  and  _389
REMARK  140  A    between atoms: _388  and  _391
REMARK  141  A    between atoms: _391  and  _392
REMARK  142  A    between atoms: _397  and  _399
REMARK  143  A    between atoms: _399  and  _400
REMARK  144  A    between atoms: _399  and  _402
REMARK  145  A    between atoms: _402  and  _403
REMARK  146  A    between atoms: _403  and  _404
REMARK  147  A    between atoms: _404  and  _405
REMARK                            x       y       z     vdW  Elec       q    Type
REMARK                         _______ _______ _______ _____ _____    ______ ____
ROOT
ATOM      1  O   HOH     1      18.690  -1.555  11.475  0.00  0.00    +0.000 OA
ENDROOT
TORSDOF 0
REMARK  Name = ../refined-set-2016/1zfq/1zfq_pocket.pdb
REMARK  147 active torsions:
REMARK  status: ('A' for Active; 'I' for Inactive)
REMARK    1  A    between atoms: _1  and  _3
REMARK    2  A    between atoms: _3  and  _4
REMARK    3  A    between atoms: _3  and  _6
REMARK    4  A    between atoms: _6  and  _7
REMARK    5  A    between atoms: _17  and  _19
REMARK    6  A    between atoms: _19  and  _20
REMARK    7  A    between atoms: _19  and  _22
REMARK    8  A    between atoms: _22  and  _23
REMARK    9  A    between atoms: _28  and  _29
REMARK   10  A    between atoms: _31  and  _33
REMARK   11  A    between atoms: _33  and  _34
REMARK   12  A    between atoms: _33  and  _36
REMARK   13  A    between atoms: _36  and  _37
REMARK   14  A    between atoms: _40  and  _41
REMARK   15  A    between atoms: _46  and  _48
REMARK   16  A    between atoms: _48  and  _49
REMARK   17  A    between atoms: _48  and  _51
REMARK   18  A    between atoms: _51  and  _52
REMARK   19  A    between atoms: _57  and  _59
REMARK   20  A    between atoms: _59  and  _60
REMARK   21  A    between atoms: _59  and  _62
REMARK   22  A    between atoms: _62  and  _63
REMARK   23  A    between atoms: _68  and  _70
REMARK   24  A    between atoms: _70  and  _71
REMARK   25  A    between atoms: _74  and  _76
REMARK   26  A    between atoms: _76  and  _77
REMARK   27  A    between atoms: _76  and  _79
REMARK   28  A    between atoms: _79  and  _80
REMARK   29  A    between atoms: _85  and  _87
REMARK   30  A    between atoms: _87  and  _88
REMARK   31  A    between atoms: _87  and  _90
REMARK   32  A    between atoms: _90  and  _91
REMARK   33  A    between atoms: _94  and  _96
REMARK   34  A    between atoms: _96  and  _97
REMARK   35  A    between atoms: _96  and  _99
REMARK   36  A    between atoms: _99  and  _100
REMARK   37  A    between atoms: _100  and  _101
REMARK   38  A    between atoms: _106  and  _108
REMARK   39  A    between atoms: _108  and  _109
REMARK   40  A    between atoms: _108  and  _111
REMARK   41  A    between atoms: _111  and  _112
REMARK   42  A    between atoms: _118  and  _120
REMARK   43  A    between atoms: _131  and  _134
REMARK   44  A    between atoms: _134  and  _135
REMARK   45  A    between atoms: _143  and  _144
REMARK   46  A    between atoms: _152  and  _154
REMARK   47  A    between atoms: _154  and  _155
REMARK   48  A    between atoms: _154  and  _157
REMARK   49  A    between atoms: _157  and  _158
REMARK   50  A    between atoms: _158  and  _159
REMARK   51  A    between atoms: _162  and  _164
REMARK   52  A    between atoms: _164  and  _165
REMARK   53  A    between atoms: _164  and  _167
REMARK   54  A    between atoms: _167  and  _168
REMARK   55  A    between atoms: _173  and  _175
REMARK   56  A    between atoms: _175  and  _176
REMARK   57  A    between atoms: _175  and  _178
REMARK   58  A    between atoms: _178  and  _179
REMARK   59  A    between atoms: _179  and  _180
REMARK   60  A    between atoms: _183  and  _185
REMARK   61  A    between atoms: _185  and  _186
REMARK   62  A    between atoms: _185  and  _188
REMARK   63  A    between atoms: _188  and  _189
REMARK   64  A    between atoms: _192  and  _194
REMARK   65  A    between atoms: _194  and  _195
REMARK   66  A    between atoms: _194  and  _197
REMARK   67  A    between atoms: _197  and  _198
REMARK   68  A    between atoms: _199  and  ZN_414
REMARK   69  A    between atoms: _203  and  _205
REMARK   70  A    between atoms: _205  and  _206
REMARK   71  A    between atoms: _205  and  _208
REMARK   72  A    between atoms: _208  and  _209
REMARK   73  A    between atoms: _212  and  _214
REMARK   74  A    between atoms: _214  and  _215
REMARK   75  A    between atoms: _214  and  _217
REMARK   76  A    between atoms: _220  and  _222
REMARK   77  A    between atoms: _222  and  _223
REMARK   78  A    between atoms: _222  and  _225
REMARK   79  A    between atoms: _225  and  _226
REMARK   80  A    between atoms: _231  and  _233
REMARK   81  A    between atoms: _233  and  _234
REMARK   82  A    between atoms: _233  and  _236
REMARK   83  A    between atoms: _236  and  _237
REMARK   84  A    between atoms: _243  and  _245
REMARK   85  A    between atoms: _245  and  _246
REMARK   86  A    between atoms: _245  and  _248
REMARK   87  A    between atoms: _251  and  _253
REMARK   88  A    between atoms: _253  and  _254
REMARK   89  A    between atoms: _253  and  _256
REMARK   90  A    between atoms: _256  and  _257
REMARK   91  A    between atoms: _260  and  _262
REMARK   92  A    between atoms: _262  and  _263
REMARK   93  A    between atoms: _266  and  _268
REMARK   94  A    between atoms: _268  and  _269
REMARK   95  A    between atoms: _268  and  _271
REMARK   96  A    between atoms: _274  and  _276
REMARK   97  A    between atoms: _276  and  _277
REMARK   98  A    between atoms: _276  and  _279
REMARK   99  A    between atoms: _279  and  _280
REMARK  100  A    between atoms: _283  and  _285
REMARK  101  A    between atoms: _285  and  _286
REMARK  102  A    between atoms: _288  and  _290
REMARK  103  A    between atoms: _290  and  _291
REMARK  104  A    between atoms: _290  and  _293
REMARK  105  A    between atoms: _293  and  _294
REMARK  106  A    between atoms: _296  and  _298
REMARK  107  A    between atoms: _298  and  _299
REMARK  108  A    between atoms: _298  and  _301
REMARK  109  A    between atoms: _301  and  _302
REMARK  110  A    between atoms: _305  and  _307
REMARK  111  A    between atoms: _307  and  _308
REMARK  112  A    between atoms: _307  and  _310
REMARK  113  A    between atoms: _310  and  _311
REMARK  114  A    between atoms: _314  and  _316
REMARK  115  A    between atoms: _316  and  _317
REMARK  116  A    between atoms: _316  and  _319
REMARK  117  A    between atoms: _319  and  _320
REMARK  118  A    between atoms: _324  and  _325
REMARK  119  A    between atoms: _331  and  _332
REMARK  120  A    between atoms: _337  and  _339
REMARK  121  A    between atoms: _339  and  _340
REMARK  122  A    between atoms: _339  and  _342
REMARK  123  A    between atoms: _342  and  _343
REMARK  124  A    between atoms: _346  and  _348
REMARK  125  A    between atoms: _348  and  _349
REMARK  126  A    between atoms: _348  and  _351
REMARK  127  A    between atoms: _351  and  _352
REMARK  128  A    between atoms: _355  and  _357
REMARK  129  A    between atoms: _357  and  _358
REMARK  130  A    between atoms: _357  and  _360
REMARK  131  A    between atoms: _362  and  _364
REMARK  132  A    between atoms: _364  and  _365
REMARK  133  A    between atoms: _364  and  _367
REMARK  134  A    between atoms: _370  and  _372
REMARK  135  A    between atoms: _372  and  _373
REMARK  136  A    between atoms: _372  and  _375
REMARK  137  A    between atoms: _375  and  _376
REMARK  138  A    between atoms: _386  and  _388
REMARK  139  A    between atoms: _388  and  _389
REMARK  140  A    between atoms: _388  and  _391
REMARK  141  A    between atoms: _391  and  _392
REMARK  142  A    between atoms: _397  and  _399
REMARK  143  A    between atoms: _399  and  _400
REMARK  144  A    between atoms: _399  and  _402
REMARK  145  A    between atoms: _402  and  _403
REMARK  146  A    between atoms: _403  and  _404
REMARK  147  A    between atoms: _404  and  _405
REMARK                            x       y       z     vdW  Elec       q    Type
REMARK                         _______ _______ _______ _____ _____    ______ ____
ROOT
ATOM      1  O   HOH     1      14.204   7.696   6.279  0.00  0.00    +0.000 OA
ENDROOT
TORSDOF 0
REMARK  Name = ../refined-set-2016/1zfq/1zfq_pocket.pdb
REMARK  147 active torsions:
REMARK  status: ('A' for Active; 'I' for Inactive)
REMARK    1  A    between atoms: _1  and  _3
REMARK    2  A    between atoms: _3  and  _4
REMARK    3  A    between atoms: _3  and  _6
REMARK    4  A    between atoms: _6  and  _7
REMARK    5  A    between atoms: _17  and  _19
REMARK    6  A    between atoms: _19  and  _20
REMARK    7  A    between atoms: _19  and  _22
REMARK    8  A    between atoms: _22  and  _23
REMARK    9  A    between atoms: _28  and  _29
REMARK   10  A    between atoms: _31  and  _33
REMARK   11  A    between atoms: _33  and  _34
REMARK   12  A    between atoms: _33  and  _36
REMARK   13  A    between atoms: _36  and  _37
REMARK   14  A    between atoms: _40  and  _41
REMARK   15  A    between atoms: _46  and  _48
REMARK   16  A    between atoms: _48  and  _49
REMARK   17  A    between atoms: _48  and  _51
REMARK   18  A    between atoms: _51  and  _52
REMARK   19  A    between atoms: _57  and  _59
REMARK   20  A    between atoms: _59  and  _60
REMARK   21  A    between atoms: _59  and  _62
REMARK   22  A    between atoms: _62  and  _63
REMARK   23  A    between atoms: _68  and  _70
REMARK   24  A    between atoms: _70  and  _71
REMARK   25  A    between atoms: _74  and  _76
REMARK   26  A    between atoms: _76  and  _77
REMARK   27  A    between atoms: _76  and  _79
REMARK   28  A    between atoms: _79  and  _80
REMARK   29  A    between atoms: _85  and  _87
REMARK   30  A    between atoms: _87  and  _88
REMARK   31  A    between atoms: _87  and  _90
REMARK   32  A    between atoms: _90  and  _91
REMARK   33  A    between atoms: _94  and  _96
REMARK   34  A    between atoms: _96  and  _97
REMARK   35  A    between atoms: _96  and  _99
REMARK   36  A    between atoms: _99  and  _100
REMARK   37  A    between atoms: _100  and  _101
REMARK   38  A    between atoms: _106  and  _108
REMARK   39  A    between atoms: _108  and  _109
REMARK   40  A    between atoms: _108  and  _111
REMARK   41  A    between atoms: _111  and  _112
REMARK   42  A    between atoms: _118  and  _120
REMARK   43  A    between atoms: _131  and  _134
REMARK   44  A    between atoms: _134  and  _135
REMARK   45  A    between atoms: _143  and  _144
REMARK   46  A    between atoms: _152  and  _154
REMARK   47  A    between atoms: _154  and  _155
REMARK   48  A    between atoms: _154  and  _157
REMARK   49  A    between atoms: _157  and  _158
REMARK   50  A    between atoms: _158  and  _159
REMARK   51  A    between atoms: _162  and  _164
REMARK   52  A    between atoms: _164  and  _165
REMARK   53  A    between atoms: _164  and  _167
REMARK   54  A    between atoms: _167  and  _168
REMARK   55  A    between atoms: _173  and  _175
REMARK   56  A    between atoms: _175  and  _176
REMARK   57  A    between atoms: _175  and  _178
REMARK   58  A    between atoms: _178  and  _179
REMARK   59  A    between atoms: _179  and  _180
REMARK   60  A    between atoms: _183  and  _185
REMARK   61  A    between atoms: _185  and  _186
REMARK   62  A    between atoms: _185  and  _188
REMARK   63  A    between atoms: _188  and  _189
REMARK   64  A    between atoms: _192  and  _194
REMARK   65  A    between atoms: _194  and  _195
REMARK   66  A    between atoms: _194  and  _197
REMARK   67  A    between atoms: _197  and  _198
REMARK   68  A    between atoms: _199  and  ZN_414
REMARK   69  A    between atoms: _203  and  _205
REMARK   70  A    between atoms: _205  and  _206
REMARK   71  A    between atoms: _205  and  _208
REMARK   72  A    between atoms: _208  and  _209
REMARK   73  A    between atoms: _212  and  _214
REMARK   74  A    between atoms: _214  and  _215
REMARK   75  A    between atoms: _214  and  _217
REMARK   76  A    between atoms: _220  and  _222
REMARK   77  A    between atoms: _222  and  _223
REMARK   78  A    between atoms: _222  and  _225
REMARK   79  A    between atoms: _225  and  _226
REMARK   80  A    between atoms: _231  and  _233
REMARK   81  A    between atoms: _233  and  _234
REMARK   82  A    between atoms: _233  and  _236
REMARK   83  A    between atoms: _236  and  _237
REMARK   84  A    between atoms: _243  and  _245
REMARK   85  A    between atoms: _245  and  _246
REMARK   86  A    between atoms: _245  and  _248
REMARK   87  A    between atoms: _251  and  _253
REMARK   88  A    between atoms: _253  and  _254
REMARK   89  A    between atoms: _253  and  _256
REMARK   90  A    between atoms: _256  and  _257
REMARK   91  A    between atoms: _260  and  _262
REMARK   92  A    between atoms: _262  and  _263
REMARK   93  A    between atoms: _266  and  _268
REMARK   94  A    between atoms: _268  and  _269
REMARK   95  A    between atoms: _268  and  _271
REMARK   96  A    between atoms: _274  and  _276
REMARK   97  A    between atoms: _276  and  _277
REMARK   98  A    between atoms: _276  and  _279
REMARK   99  A    between atoms: _279  and  _280
REMARK  100  A    between atoms: _283  and  _285
REMARK  101  A    between atoms: _285  and  _286
REMARK  102  A    between atoms: _288  and  _290
REMARK  103  A    between atoms: _290  and  _291
REMARK  104  A    between atoms: _290  and  _293
REMARK  105  A    between atoms: _293  and  _294
REMARK  106  A    between atoms: _296  and  _298
REMARK  107  A    between atoms: _298  and  _299
REMARK  108  A    between atoms: _298  and  _301
REMARK  109  A    between atoms: _301  and  _302
REMARK  110  A    between atoms: _305  and  _307
REMARK  111  A    between atoms: _307  and  _308
REMARK  112  A    between atoms: _307  and  _310
REMARK  113  A    between atoms: _310  and  _311
REMARK  114  A    between atoms: _314  and  _316
REMARK  115  A    between atoms: _316  and  _317
REMARK  116  A    between atoms: _316  and  _319
REMARK  117  A    between atoms: _319  and  _320
REMARK  118  A    between atoms: _324  and  _325
REMARK  119  A    between atoms: _331  and  _332
REMARK  120  A    between atoms: _337  and  _339
REMARK  121  A    between atoms: _339  and  _340
REMARK  122  A    between atoms: _339  and  _342
REMARK  123  A    between atoms: _342  and  _343
REMARK  124  A    between atoms: _346  and  _348
REMARK  125  A    between atoms: _348  and  _349
REMARK  126  A    between atoms: _348  and  _351
REMARK  127  A    between atoms: _351  and  _352
REMARK  128  A    between atoms: _355  and  _357
REMARK  129  A    between atoms: _357  and  _358
REMARK  130  A    between atoms: _357  and  _360
REMARK  131  A    between atoms: _362  and  _364
REMARK  132  A    between atoms: _364  and  _365
REMARK  133  A    between atoms: _364  and  _367
REMARK  134  A    between atoms: _370  and  _372
REMARK  135  A    between atoms: _372  and  _373
REMARK  136  A    between atoms: _372  and  _375
REMARK  137  A    between atoms: _375  and  _376
REMARK  138  A    between atoms: _386  and  _388
REMARK  139  A    between atoms: _388  and  _389
REMARK  140  A    between atoms: _388  and  _391
REMARK  141  A    between atoms: _391  and  _392
REMARK  142  A    between atoms: _397  and  _399
REMARK  143  A    between atoms: _399  and  _400
REMARK  144  A    between atoms: _399  and  _402
REMARK  145  A    between atoms: _402  and  _403
REMARK  146  A    between atoms: _403  and  _404
REMARK  147  A    between atoms: _404  and  _405
REMARK                            x       y       z     vdW  Elec       q    Type
REMARK                         _______ _______ _______ _____ _____    ______ ____
ROOT
ATOM      1  O   HOH     1      20.117   3.146  11.521  0.00  0.00    +0.000 OA
ENDROOT
TORSDOF 0
REMARK  Name = ../refined-set-2016/1zfq/1zfq_pocket.pdb
REMARK  147 active torsions:
REMARK  status: ('A' for Active; 'I' for Inactive)
REMARK    1  A    between atoms: _1  and  _3
REMARK    2  A    between atoms: _3  and  _4
REMARK    3  A    between atoms: _3  and  _6
REMARK    4  A    between atoms: _6  and  _7
REMARK    5  A    between atoms: _17  and  _19
REMARK    6  A    between atoms: _19  and  _20
REMARK    7  A    between atoms: _19  and  _22
REMARK    8  A    between atoms: _22  and  _23
REMARK    9  A    between atoms: _28  and  _29
REMARK   10  A    between atoms: _31  and  _33
REMARK   11  A    between atoms: _33  and  _34
REMARK   12  A    between atoms: _33  and  _36
REMARK   13  A    between atoms: _36  and  _37
REMARK   14  A    between atoms: _40  and  _41
REMARK   15  A    between atoms: _46  and  _48
REMARK   16  A    between atoms: _48  and  _49
REMARK   17  A    between atoms: _48  and  _51
REMARK   18  A    between atoms: _51  and  _52
REMARK   19  A    between atoms: _57  and  _59
REMARK   20  A    between atoms: _59  and  _60
REMARK   21  A    between atoms: _59  and  _62
REMARK   22  A    between atoms: _62  and  _63
REMARK   23  A    between atoms: _68  and  _70
REMARK   24  A    between atoms: _70  and  _71
REMARK   25  A    between atoms: _74  and  _76
REMARK   26  A    between atoms: _76  and  _77
REMARK   27  A    between atoms: _76  and  _79
REMARK   28  A    between atoms: _79  and  _80
REMARK   29  A    between atoms: _85  and  _87
REMARK   30  A    between atoms: _87  and  _88
REMARK   31  A    between atoms: _87  and  _90
REMARK   32  A    between atoms: _90  and  _91
REMARK   33  A    between atoms: _94  and  _96
REMARK   34  A    between atoms: _96  and  _97
REMARK   35  A    between atoms: _96  and  _99
REMARK   36  A    between atoms: _99  and  _100
REMARK   37  A    between atoms: _100  and  _101
REMARK   38  A    between atoms: _106  and  _108
REMARK   39  A    between atoms: _108  and  _109
REMARK   40  A    between atoms: _108  and  _111
REMARK   41  A    between atoms: _111  and  _112
REMARK   42  A    between atoms: _118  and  _120
REMARK   43  A    between atoms: _131  and  _134
REMARK   44  A    between atoms: _134  and  _135
REMARK   45  A    between atoms: _143  and  _144
REMARK   46  A    between atoms: _152  and  _154
REMARK   47  A    between atoms: _154  and  _155
REMARK   48  A    between atoms: _154  and  _157
REMARK   49  A    between atoms: _157  and  _158
REMARK   50  A    between atoms: _158  and  _159
REMARK   51  A    between atoms: _162  and  _164
REMARK   52  A    between atoms: _164  and  _165
REMARK   53  A    between atoms: _164  and  _167
REMARK   54  A    between atoms: _167  and  _168
REMARK   55  A    between atoms: _173  and  _175
REMARK   56  A    between atoms: _175  and  _176
REMARK   57  A    between atoms: _175  and  _178
REMARK   58  A    between atoms: _178  and  _179
REMARK   59  A    between atoms: _179  and  _180
REMARK   60  A    between atoms: _183  and  _185
REMARK   61  A    between atoms: _185  and  _186
REMARK   62  A    between atoms: _185  and  _188
REMARK   63  A    between atoms: _188  and  _189
REMARK   64  A    between atoms: _192  and  _194
REMARK   65  A    between atoms: _194  and  _195
REMARK   66  A    between atoms: _194  and  _197
REMARK   67  A    between atoms: _197  and  _198
REMARK   68  A    between atoms: _199  and  ZN_414
REMARK   69  A    between atoms: _203  and  _205
REMARK   70  A    between atoms: _205  and  _206
REMARK   71  A    between atoms: _205  and  _208
REMARK   72  A    between atoms: _208  and  _209
REMARK   73  A    between atoms: _212  and  _214
REMARK   74  A    between atoms: _214  and  _215
REMARK   75  A    between atoms: _214  and  _217
REMARK   76  A    between atoms: _220  and  _222
REMARK   77  A    between atoms: _222  and  _223
REMARK   78  A    between atoms: _222  and  _225
REMARK   79  A    between atoms: _225  and  _226
REMARK   80  A    between atoms: _231  and  _233
REMARK   81  A    between atoms: _233  and  _234
REMARK   82  A    between atoms: _233  and  _236
REMARK   83  A    between atoms: _236  and  _237
REMARK   84  A    between atoms: _243  and  _245
REMARK   85  A    between atoms: _245  and  _246
REMARK   86  A    between atoms: _245  and  _248
REMARK   87  A    between atoms: _251  and  _253
REMARK   88  A    between atoms: _253  and  _254
REMARK   89  A    between atoms: _253  and  _256
REMARK   90  A    between atoms: _256  and  _257
REMARK   91  A    between atoms: _260  and  _262
REMARK   92  A    between atoms: _262  and  _263
REMARK   93  A    between atoms: _266  and  _268
REMARK   94  A    between atoms: _268  and  _269
REMARK   95  A    between atoms: _268  and  _271
REMARK   96  A    between atoms: _274  and  _276
REMARK   97  A    between atoms: _276  and  _277
REMARK   98  A    between atoms: _276  and  _279
REMARK   99  A    between atoms: _279  and  _280
REMARK  100  A    between atoms: _283  and  _285
REMARK  101  A    between atoms: _285  and  _286
REMARK  102  A    between atoms: _288  and  _290
REMARK  103  A    between atoms: _290  and  _291
REMARK  104  A    between atoms: _290  and  _293
REMARK  105  A    between atoms: _293  and  _294
REMARK  106  A    between atoms: _296  and  _298
REMARK  107  A    between atoms: _298  and  _299
REMARK  108  A    between atoms: _298  and  _301
REMARK  109  A    between atoms: _301  and  _302
REMARK  110  A    between atoms: _305  and  _307
REMARK  111  A    between atoms: _307  and  _308
REMARK  112  A    between atoms: _307  and  _310
REMARK  113  A    between atoms: _310  and  _311
REMARK  114  A    between atoms: _314  and  _316
REMARK  115  A    between atoms: _316  and  _317
REMARK  116  A    between atoms: _316  and  _319
REMARK  117  A    between atoms: _319  and  _320
REMARK  118  A    between atoms: _324  and  _325
REMARK  119  A    between atoms: _331  and  _332
REMARK  120  A    between atoms: _337  and  _339
REMARK  121  A    between atoms: _339  and  _340
REMARK  122  A    between atoms: _339  and  _342
REMARK  123  A    between atoms: _342  and  _343
REMARK  124  A    between atoms: _346  and  _348
REMARK  125  A    between atoms: _348  and  _349
REMARK  126  A    between atoms: _348  and  _351
REMARK  127  A    between atoms: _351  and  _352
REMARK  128  A    between atoms: _355  and  _357
REMARK  129  A    between atoms: _357  and  _358
REMARK  130  A    between atoms: _357  and  _360
REMARK  131  A    between atoms: _362  and  _364
REMARK  132  A    between atoms: _364  and  _365
REMARK  133  A    between atoms: _364  and  _367
REMARK  134  A    between atoms: _370  and  _372
REMARK  135  A    between atoms: _372  and  _373
REMARK  136  A    between atoms: _372  and  _375
REMARK  137  A    between atoms: _375  and  _376
REMARK  138  A    between atoms: _386  and  _388
REMARK  139  A    between atoms: _388  and  _389
REMARK  140  A    between atoms: _388  and  _391
REMARK  141  A    between atoms: _391  and  _392
REMARK  142  A    between atoms: _397  and  _399
REMARK  143  A    between atoms: _399  and  _400
REMARK  144  A    between atoms: _399  and  _402
REMARK  145  A    between atoms: _402  and  _403
REMARK  146  A    between atoms: _403  and  _404
REMARK  147  A    between atoms: _404  and  _405
REMARK                            x       y       z     vdW  Elec       q    Type
REMARK                         _______ _______ _______ _____ _____    ______ ____
ROOT
ATOM      1  O   HOH     1      17.460   6.596   7.077  0.00  0.00    +0.000 OA
ENDROOT
TORSDOF 0
REMARK  Name = ../refined-set-2016/1zfq/1zfq_pocket.pdb
REMARK  147 active torsions:
REMARK  status: ('A' for Active; 'I' for Inactive)
REMARK    1  A    between atoms: _1  and  _3
REMARK    2  A    between atoms: _3  and  _4
REMARK    3  A    between atoms: _3  and  _6
REMARK    4  A    between atoms: _6  and  _7
REMARK    5  A    between atoms: _17  and  _19
REMARK    6  A    between atoms: _19  and  _20
REMARK    7  A    between atoms: _19  and  _22
REMARK    8  A    between atoms: _22  and  _23
REMARK    9  A    between atoms: _28  and  _29
REMARK   10  A    between atoms: _31  and  _33
REMARK   11  A    between atoms: _33  and  _34
REMARK   12  A    between atoms: _33  and  _36
REMARK   13  A    between atoms: _36  and  _37
REMARK   14  A    between atoms: _40  and  _41
REMARK   15  A    between atoms: _46  and  _48
REMARK   16  A    between atoms: _48  and  _49
REMARK   17  A    between atoms: _48  and  _51
REMARK   18  A    between atoms: _51  and  _52
REMARK   19  A    between atoms: _57  and  _59
REMARK   20  A    between atoms: _59  and  _60
REMARK   21  A    between atoms: _59  and  _62
REMARK   22  A    between atoms: _62  and  _63
REMARK   23  A    between atoms: _68  and  _70
REMARK   24  A    between atoms: _70  and  _71
REMARK   25  A    between atoms: _74  and  _76
REMARK   26  A    between atoms: _76  and  _77
REMARK   27  A    between atoms: _76  and  _79
REMARK   28  A    between atoms: _79  and  _80
REMARK   29  A    between atoms: _85  and  _87
REMARK   30  A    between atoms: _87  and  _88
REMARK   31  A    between atoms: _87  and  _90
REMARK   32  A    between atoms: _90  and  _91
REMARK   33  A    between atoms: _94  and  _96
REMARK   34  A    between atoms: _96  and  _97
REMARK   35  A    between atoms: _96  and  _99
REMARK   36  A    between atoms: _99  and  _100
REMARK   37  A    between atoms: _100  and  _101
REMARK   38  A    between atoms: _106  and  _108
REMARK   39  A    between atoms: _108  and  _109
REMARK   40  A    between atoms: _108  and  _111
REMARK   41  A    between atoms: _111  and  _112
REMARK   42  A    between atoms: _118  and  _120
REMARK   43  A    between atoms: _131  and  _134
REMARK   44  A    between atoms: _134  and  _135
REMARK   45  A    between atoms: _143  and  _144
REMARK   46  A    between atoms: _152  and  _154
REMARK   47  A    between atoms: _154  and  _155
REMARK   48  A    between atoms: _154  and  _157
REMARK   49  A    between atoms: _157  and  _158
REMARK   50  A    between atoms: _158  and  _159
REMARK   51  A    between atoms: _162  and  _164
REMARK   52  A    between atoms: _164  and  _165
REMARK   53  A    between atoms: _164  and  _167
REMARK   54  A    between atoms: _167  and  _168
REMARK   55  A    between atoms: _173  and  _175
REMARK   56  A    between atoms: _175  and  _176
REMARK   57  A    between atoms: _175  and  _178
REMARK   58  A    between atoms: _178  and  _179
REMARK   59  A    between atoms: _179  and  _180
REMARK   60  A    between atoms: _183  and  _185
REMARK   61  A    between atoms: _185  and  _186
REMARK   62  A    between atoms: _185  and  _188
REMARK   63  A    between atoms: _188  and  _189
REMARK   64  A    between atoms: _192  and  _194
REMARK   65  A    between atoms: _194  and  _195
REMARK   66  A    between atoms: _194  and  _197
REMARK   67  A    between atoms: _197  and  _198
REMARK   68  A    between atoms: _199  and  ZN_414
REMARK   69  A    between atoms: _203  and  _205
REMARK   70  A    between atoms: _205  and  _206
REMARK   71  A    between atoms: _205  and  _208
REMARK   72  A    between atoms: _208  and  _209
REMARK   73  A    between atoms: _212  and  _214
REMARK   74  A    between atoms: _214  and  _215
REMARK   75  A    between atoms: _214  and  _217
REMARK   76  A    between atoms: _220  and  _222
REMARK   77  A    between atoms: _222  and  _223
REMARK   78  A    between atoms: _222  and  _225
REMARK   79  A    between atoms: _225  and  _226
REMARK   80  A    between atoms: _231  and  _233
REMARK   81  A    between atoms: _233  and  _234
REMARK   82  A    between atoms: _233  and  _236
REMARK   83  A    between atoms: _236  and  _237
REMARK   84  A    between atoms: _243  and  _245
REMARK   85  A    between atoms: _245  and  _246
REMARK   86  A    between atoms: _245  and  _248
REMARK   87  A    between atoms: _251  and  _253
REMARK   88  A    between atoms: _253  and  _254
REMARK   89  A    between atoms: _253  and  _256
REMARK   90  A    between atoms: _256  and  _257
REMARK   91  A    between atoms: _260  and  _262
REMARK   92  A    between atoms: _262  and  _263
REMARK   93  A    between atoms: _266  and  _268
REMARK   94  A    between atoms: _268  and  _269
REMARK   95  A    between atoms: _268  and  _271
REMARK   96  A    between atoms: _274  and  _276
REMARK   97  A    between atoms: _276  and  _277
REMARK   98  A    between atoms: _276  and  _279
REMARK   99  A    between atoms: _279  and  _280
REMARK  100  A    between atoms: _283  and  _285
REMARK  101  A    between atoms: _285  and  _286
REMARK  102  A    between atoms: _288  and  _290
REMARK  103  A    between atoms: _290  and  _291
REMARK  104  A    between atoms: _290  and  _293
REMARK  105  A    between atoms: _293  and  _294
REMARK  106  A    between atoms: _296  and  _298
REMARK  107  A    between atoms: _298  and  _299
REMARK  108  A    between atoms: _298  and  _301
REMARK  109  A    between atoms: _301  and  _302
REMARK  110  A    between atoms: _305  and  _307
REMARK  111  A    between atoms: _307  and  _308
REMARK  112  A    between atoms: _307  and  _310
REMARK  113  A    between atoms: _310  and  _311
REMARK  114  A    between atoms: _314  and  _316
REMARK  115  A    between atoms: _316  and  _317
REMARK  116  A    between atoms: _316  and  _319
REMARK  117  A    between atoms: _319  and  _320
REMARK  118  A    between atoms: _324  and  _325
REMARK  119  A    between atoms: _331  and  _332
REMARK  120  A    between atoms: _337  and  _339
REMARK  121  A    between atoms: _339  and  _340
REMARK  122  A    between atoms: _339  and  _342
REMARK  123  A    between atoms: _342  and  _343
REMARK  124  A    between atoms: _346  and  _348
REMARK  125  A    between atoms: _348  and  _349
REMARK  126  A    between atoms: _348  and  _351
REMARK  127  A    between atoms: _351  and  _352
REMARK  128  A    between atoms: _355  and  _357
REMARK  129  A    between atoms: _357  and  _358
REMARK  130  A    between atoms: _357  and  _360
REMARK  131  A    between atoms: _362  and  _364
REMARK  132  A    between atoms: _364  and  _365
REMARK  133  A    between atoms: _364  and  _367
REMARK  134  A    between atoms: _370  and  _372
REMARK  135  A    between atoms: _372  and  _373
REMARK  136  A    between atoms: _372  and  _375
REMARK  137  A    between atoms: _375  and  _376
REMARK  138  A    between atoms: _386  and  _388
REMARK  139  A    between atoms: _388  and  _389
REMARK  140  A    between atoms: _388  and  _391
REMARK  141  A    between atoms: _391  and  _392
REMARK  142  A    between atoms: _397  and  _399
REMARK  143  A    between atoms: _399  and  _400
REMARK  144  A    between atoms: _399  and  _402
REMARK  145  A    between atoms: _402  and  _403
REMARK  146  A    between atoms: _403  and  _404
REMARK  147  A    between atoms: _404  and  _405
REMARK                            x       y       z     vdW  Elec       q    Type
REMARK                         _______ _______ _______ _____ _____    ______ ____
ROOT
ATOM      1  O   HOH     1      14.439   8.479  10.637  0.00  0.00    +0.000 OA
ENDROOT
TORSDOF 0
REMARK  Name = ../refined-set-2016/1zfq/1zfq_pocket.pdb
REMARK  147 active torsions:
REMARK  status: ('A' for Active; 'I' for Inactive)
REMARK    1  A    between atoms: _1  and  _3
REMARK    2  A    between atoms: _3  and  _4
REMARK    3  A    between atoms: _3  and  _6
REMARK    4  A    between atoms: _6  and  _7
REMARK    5  A    between atoms: _17  and  _19
REMARK    6  A    between atoms: _19  and  _20
REMARK    7  A    between atoms: _19  and  _22
REMARK    8  A    between atoms: _22  and  _23
REMARK    9  A    between atoms: _28  and  _29
REMARK   10  A    between atoms: _31  and  _33
REMARK   11  A    between atoms: _33  and  _34
REMARK   12  A    between atoms: _33  and  _36
REMARK   13  A    between atoms: _36  and  _37
REMARK   14  A    between atoms: _40  and  _41
REMARK   15  A    between atoms: _46  and  _48
REMARK   16  A    between atoms: _48  and  _49
REMARK   17  A    between atoms: _48  and  _51
REMARK   18  A    between atoms: _51  and  _52
REMARK   19  A    between atoms: _57  and  _59
REMARK   20  A    between atoms: _59  and  _60
REMARK   21  A    between atoms: _59  and  _62
REMARK   22  A    between atoms: _62  and  _63
REMARK   23  A    between atoms: _68  and  _70
REMARK   24  A    between atoms: _70  and  _71
REMARK   25  A    between atoms: _74  and  _76
REMARK   26  A    between atoms: _76  and  _77
REMARK   27  A    between atoms: _76  and  _79
REMARK   28  A    between atoms: _79  and  _80
REMARK   29  A    between atoms: _85  and  _87
REMARK   30  A    between atoms: _87  and  _88
REMARK   31  A    between atoms: _87  and  _90
REMARK   32  A    between atoms: _90  and  _91
REMARK   33  A    between atoms: _94  and  _96
REMARK   34  A    between atoms: _96  and  _97
REMARK   35  A    between atoms: _96  and  _99
REMARK   36  A    between atoms: _99  and  _100
REMARK   37  A    between atoms: _100  and  _101
REMARK   38  A    between atoms: _106  and  _108
REMARK   39  A    between atoms: _108  and  _109
REMARK   40  A    between atoms: _108  and  _111
REMARK   41  A    between atoms: _111  and  _112
REMARK   42  A    between atoms: _118  and  _120
REMARK   43  A    between atoms: _131  and  _134
REMARK   44  A    between atoms: _134  and  _135
REMARK   45  A    between atoms: _143  and  _144
REMARK   46  A    between atoms: _152  and  _154
REMARK   47  A    between atoms: _154  and  _155
REMARK   48  A    between atoms: _154  and  _157
REMARK   49  A    between atoms: _157  and  _158
REMARK   50  A    between atoms: _158  and  _159
REMARK   51  A    between atoms: _162  and  _164
REMARK   52  A    between atoms: _164  and  _165
REMARK   53  A    between atoms: _164  and  _167
REMARK   54  A    between atoms: _167  and  _168
REMARK   55  A    between atoms: _173  and  _175
REMARK   56  A    between atoms: _175  and  _176
REMARK   57  A    between atoms: _175  and  _178
REMARK   58  A    between atoms: _178  and  _179
REMARK   59  A    between atoms: _179  and  _180
REMARK   60  A    between atoms: _183  and  _185
REMARK   61  A    between atoms: _185  and  _186
REMARK   62  A    between atoms: _185  and  _188
REMARK   63  A    between atoms: _188  and  _189
REMARK   64  A    between atoms: _192  and  _194
REMARK   65  A    between atoms: _194  and  _195
REMARK   66  A    between atoms: _194  and  _197
REMARK   67  A    between atoms: _197  and  _198
REMARK   68  A    between atoms: _199  and  ZN_414
REMARK   69  A    between atoms: _203  and  _205
REMARK   70  A    between atoms: _205  and  _206
REMARK   71  A    between atoms: _205  and  _208
REMARK   72  A    between atoms: _208  and  _209
REMARK   73  A    between atoms: _212  and  _214
REMARK   74  A    between atoms: _214  and  _215
REMARK   75  A    between atoms: _214  and  _217
REMARK   76  A    between atoms: _220  and  _222
REMARK   77  A    between atoms: _222  and  _223
REMARK   78  A    between atoms: _222  and  _225
REMARK   79  A    between atoms: _225  and  _226
REMARK   80  A    between atoms: _231  and  _233
REMARK   81  A    between atoms: _233  and  _234
REMARK   82  A    between atoms: _233  and  _236
REMARK   83  A    between atoms: _236  and  _237
REMARK   84  A    between atoms: _243  and  _245
REMARK   85  A    between atoms: _245  and  _246
REMARK   86  A    between atoms: _245  and  _248
REMARK   87  A    between atoms: _251  and  _253
REMARK   88  A    between atoms: _253  and  _254
REMARK   89  A    between atoms: _253  and  _256
REMARK   90  A    between atoms: _256  and  _257
REMARK   91  A    between atoms: _260  and  _262
REMARK   92  A    between atoms: _262  and  _263
REMARK   93  A    between atoms: _266  and  _268
REMARK   94  A    between atoms: _268  and  _269
REMARK   95  A    between atoms: _268  and  _271
REMARK   96  A    between atoms: _274  and  _276
REMARK   97  A    between atoms: _276  and  _277
REMARK   98  A    between atoms: _276  and  _279
REMARK   99  A    between atoms: _279  and  _280
REMARK  100  A    between atoms: _283  and  _285
REMARK  101  A    between atoms: _285  and  _286
REMARK  102  A    between atoms: _288  and  _290
REMARK  103  A    between atoms: _290  and  _291
REMARK  104  A    between atoms: _290  and  _293
REMARK  105  A    between atoms: _293  and  _294
REMARK  106  A    between atoms: _296  and  _298
REMARK  107  A    between atoms: _298  and  _299
REMARK  108  A    between atoms: _298  and  _301
REMARK  109  A    between atoms: _301  and  _302
REMARK  110  A    between atoms: _305  and  _307
REMARK  111  A    between atoms: _307  and  _308
REMARK  112  A    between atoms: _307  and  _310
REMARK  113  A    between atoms: _310  and  _311
REMARK  114  A    between atoms: _314  and  _316
REMARK  115  A    between atoms: _316  and  _317
REMARK  116  A    between atoms: _316  and  _319
REMARK  117  A    between atoms: _319  and  _320
REMARK  118  A    between atoms: _324  and  _325
REMARK  119  A    between atoms: _331  and  _332
REMARK  120  A    between atoms: _337  and  _339
REMARK  121  A    between atoms: _339  and  _340
REMARK  122  A    between atoms: _339  and  _342
REMARK  123  A    between atoms: _342  and  _343
REMARK  124  A    between atoms: _346  and  _348
REMARK  125  A    between atoms: _348  and  _349
REMARK  126  A    between atoms: _348  and  _351
REMARK  127  A    between atoms: _351  and  _352
REMARK  128  A    between atoms: _355  and  _357
REMARK  129  A    between atoms: _357  and  _358
REMARK  130  A    between atoms: _357  and  _360
REMARK  131  A    between atoms: _362  and  _364
REMARK  132  A    between atoms: _364  and  _365
REMARK  133  A    between atoms: _364  and  _367
REMARK  134  A    between atoms: _370  and  _372
REMARK  135  A    between atoms: _372  and  _373
REMARK  136  A    between atoms: _372  and  _375
REMARK  137  A    between atoms: _375  and  _376
REMARK  138  A    between atoms: _386  and  _388
REMARK  139  A    between atoms: _388  and  _389
REMARK  140  A    between atoms: _388  and  _391
REMARK  141  A    between atoms: _391  and  _392
REMARK  142  A    between atoms: _397  and  _399
REMARK  143  A    between atoms: _399  and  _400
REMARK  144  A    between atoms: _399  and  _402
REMARK  145  A    between atoms: _402  and  _403
REMARK  146  A    between atoms: _403  and  _404
REMARK  147  A    between atoms: _404  and  _405
REMARK                            x       y       z     vdW  Elec       q    Type
REMARK                         _______ _______ _______ _____ _____    ______ ____
ROOT
ATOM      1  O   HOH     1      22.233   6.537  12.027  0.00  0.00    +0.000 OA
ENDROOT
TORSDOF 0
REMARK  Name = ../refined-set-2016/1zfq/1zfq_pocket.pdb
REMARK  147 active torsions:
REMARK  status: ('A' for Active; 'I' for Inactive)
REMARK    1  A    between atoms: _1  and  _3
REMARK    2  A    between atoms: _3  and  _4
REMARK    3  A    between atoms: _3  and  _6
REMARK    4  A    between atoms: _6  and  _7
REMARK    5  A    between atoms: _17  and  _19
REMARK    6  A    between atoms: _19  and  _20
REMARK    7  A    between atoms: _19  and  _22
REMARK    8  A    between atoms: _22  and  _23
REMARK    9  A    between atoms: _28  and  _29
REMARK   10  A    between atoms: _31  and  _33
REMARK   11  A    between atoms: _33  and  _34
REMARK   12  A    between atoms: _33  and  _36
REMARK   13  A    between atoms: _36  and  _37
REMARK   14  A    between atoms: _40  and  _41
REMARK   15  A    between atoms: _46  and  _48
REMARK   16  A    between atoms: _48  and  _49
REMARK   17  A    between atoms: _48  and  _51
REMARK   18  A    between atoms: _51  and  _52
REMARK   19  A    between atoms: _57  and  _59
REMARK   20  A    between atoms: _59  and  _60
REMARK   21  A    between atoms: _59  and  _62
REMARK   22  A    between atoms: _62  and  _63
REMARK   23  A    between atoms: _68  and  _70
REMARK   24  A    between atoms: _70  and  _71
REMARK   25  A    between atoms: _74  and  _76
REMARK   26  A    between atoms: _76  and  _77
REMARK   27  A    between atoms: _76  and  _79
REMARK   28  A    between atoms: _79  and  _80
REMARK   29  A    between atoms: _85  and  _87
REMARK   30  A    between atoms: _87  and  _88
REMARK   31  A    between atoms: _87  and  _90
REMARK   32  A    between atoms: _90  and  _91
REMARK   33  A    between atoms: _94  and  _96
REMARK   34  A    between atoms: _96  and  _97
REMARK   35  A    between atoms: _96  and  _99
REMARK   36  A    between atoms: _99  and  _100
REMARK   37  A    between atoms: _100  and  _101
REMARK   38  A    between atoms: _106  and  _108
REMARK   39  A    between atoms: _108  and  _109
REMARK   40  A    between atoms: _108  and  _111
REMARK   41  A    between atoms: _111  and  _112
REMARK   42  A    between atoms: _118  and  _120
REMARK   43  A    between atoms: _131  and  _134
REMARK   44  A    between atoms: _134  and  _135
REMARK   45  A    between atoms: _143  and  _144
REMARK   46  A    between atoms: _152  and  _154
REMARK   47  A    between atoms: _154  and  _155
REMARK   48  A    between atoms: _154  and  _157
REMARK   49  A    between atoms: _157  and  _158
REMARK   50  A    between atoms: _158  and  _159
REMARK   51  A    between atoms: _162  and  _164
REMARK   52  A    between atoms: _164  and  _165
REMARK   53  A    between atoms: _164  and  _167
REMARK   54  A    between atoms: _167  and  _168
REMARK   55  A    between atoms: _173  and  _175
REMARK   56  A    between atoms: _175  and  _176
REMARK   57  A    between atoms: _175  and  _178
REMARK   58  A    between atoms: _178  and  _179
REMARK   59  A    between atoms: _179  and  _180
REMARK   60  A    between atoms: _183  and  _185
REMARK   61  A    between atoms: _185  and  _186
REMARK   62  A    between atoms: _185  and  _188
REMARK   63  A    between atoms: _188  and  _189
REMARK   64  A    between atoms: _192  and  _194
REMARK   65  A    between atoms: _194  and  _195
REMARK   66  A    between atoms: _194  and  _197
REMARK   67  A    between atoms: _197  and  _198
REMARK   68  A    between atoms: _199  and  ZN_414
REMARK   69  A    between atoms: _203  and  _205
REMARK   70  A    between atoms: _205  and  _206
REMARK   71  A    between atoms: _205  and  _208
REMARK   72  A    between atoms: _208  and  _209
REMARK   73  A    between atoms: _212  and  _214
REMARK   74  A    between atoms: _214  and  _215
REMARK   75  A    between atoms: _214  and  _217
REMARK   76  A    between atoms: _220  and  _222
REMARK   77  A    between atoms: _222  and  _223
REMARK   78  A    between atoms: _222  and  _225
REMARK   79  A    between atoms: _225  and  _226
REMARK   80  A    between atoms: _231  and  _233
REMARK   81  A    between atoms: _233  and  _234
REMARK   82  A    between atoms: _233  and  _236
REMARK   83  A    between atoms: _236  and  _237
REMARK   84  A    between atoms: _243  and  _245
REMARK   85  A    between atoms: _245  and  _246
REMARK   86  A    between atoms: _245  and  _248
REMARK   87  A    between atoms: _251  and  _253
REMARK   88  A    between atoms: _253  and  _254
REMARK   89  A    between atoms: _253  and  _256
REMARK   90  A    between atoms: _256  and  _257
REMARK   91  A    between atoms: _260  and  _262
REMARK   92  A    between atoms: _262  and  _263
REMARK   93  A    between atoms: _266  and  _268
REMARK   94  A    between atoms: _268  and  _269
REMARK   95  A    between atoms: _268  and  _271
REMARK   96  A    between atoms: _274  and  _276
REMARK   97  A    between atoms: _276  and  _277
REMARK   98  A    between atoms: _276  and  _279
REMARK   99  A    between atoms: _279  and  _280
REMARK  100  A    between atoms: _283  and  _285
REMARK  101  A    between atoms: _285  and  _286
REMARK  102  A    between atoms: _288  and  _290
REMARK  103  A    between atoms: _290  and  _291
REMARK  104  A    between atoms: _290  and  _293
REMARK  105  A    between atoms: _293  and  _294
REMARK  106  A    between atoms: _296  and  _298
REMARK  107  A    between atoms: _298  and  _299
REMARK  108  A    between atoms: _298  and  _301
REMARK  109  A    between atoms: _301  and  _302
REMARK  110  A    between atoms: _305  and  _307
REMARK  111  A    between atoms: _307  and  _308
REMARK  112  A    between atoms: _307  and  _310
REMARK  113  A    between atoms: _310  and  _311
REMARK  114  A    between atoms: _314  and  _316
REMARK  115  A    between atoms: _316  and  _317
REMARK  116  A    between atoms: _316  and  _319
REMARK  117  A    between atoms: _319  and  _320
REMARK  118  A    between atoms: _324  and  _325
REMARK  119  A    between atoms: _331  and  _332
REMARK  120  A    between atoms: _337  and  _339
REMARK  121  A    between atoms: _339  and  _340
REMARK  122  A    between atoms: _339  and  _342
REMARK  123  A    between atoms: _342  and  _343
REMARK  124  A    between atoms: _346  and  _348
REMARK  125  A    between atoms: _348  and  _349
REMARK  126  A    between atoms: _348  and  _351
REMARK  127  A    between atoms: _351  and  _352
REMARK  128  A    between atoms: _355  and  _357
REMARK  129  A    between atoms: _357  and  _358
REMARK  130  A    between atoms: _357  and  _360
REMARK  131  A    between atoms: _362  and  _364
REMARK  132  A    between atoms: _364  and  _365
REMARK  133  A    between atoms: _364  and  _367
REMARK  134  A    between atoms: _370  and  _372
REMARK  135  A    between atoms: _372  and  _373
REMARK  136  A    between atoms: _372  and  _375
REMARK  137  A    between atoms: _375  and  _376
REMARK  138  A    between atoms: _386  and  _388
REMARK  139  A    between atoms: _388  and  _389
REMARK  140  A    between atoms: _388  and  _391
REMARK  141  A    between atoms: _391  and  _392
REMARK  142  A    between atoms: _397  and  _399
REMARK  143  A    between atoms: _399  and  _400
REMARK  144  A    between atoms: _399  and  _402
REMARK  145  A    between atoms: _402  and  _403
REMARK  146  A    between atoms: _403  and  _404
REMARK  147  A    between atoms: _404  and  _405
REMARK                            x       y       z     vdW  Elec       q    Type
REMARK                         _______ _______ _______ _____ _____    ______ ____
ROOT
ATOM      1  O   HOH     1      17.398   6.977   9.874  0.00  0.00    +0.000 OA
ENDROOT
TORSDOF 0
REMARK  Name = ../refined-set-2016/1zfq/1zfq_pocket.pdb
REMARK  147 active torsions:
REMARK  status: ('A' for Active; 'I' for Inactive)
REMARK    1  A    between atoms: _1  and  _3
REMARK    2  A    between atoms: _3  and  _4
REMARK    3  A    between atoms: _3  and  _6
REMARK    4  A    between atoms: _6  and  _7
REMARK    5  A    between atoms: _17  and  _19
REMARK    6  A    between atoms: _19  and  _20
REMARK    7  A    between atoms: _19  and  _22
REMARK    8  A    between atoms: _22  and  _23
REMARK    9  A    between atoms: _28  and  _29
REMARK   10  A    between atoms: _31  and  _33
REMARK   11  A    between atoms: _33  and  _34
REMARK   12  A    between atoms: _33  and  _36
REMARK   13  A    between atoms: _36  and  _37
REMARK   14  A    between atoms: _40  and  _41
REMARK   15  A    between atoms: _46  and  _48
REMARK   16  A    between atoms: _48  and  _49
REMARK   17  A    between atoms: _48  and  _51
REMARK   18  A    between atoms: _51  and  _52
REMARK   19  A    between atoms: _57  and  _59
REMARK   20  A    between atoms: _59  and  _60
REMARK   21  A    between atoms: _59  and  _62
REMARK   22  A    between atoms: _62  and  _63
REMARK   23  A    between atoms: _68  and  _70
REMARK   24  A    between atoms: _70  and  _71
REMARK   25  A    between atoms: _74  and  _76
REMARK   26  A    between atoms: _76  and  _77
REMARK   27  A    between atoms: _76  and  _79
REMARK   28  A    between atoms: _79  and  _80
REMARK   29  A    between atoms: _85  and  _87
REMARK   30  A    between atoms: _87  and  _88
REMARK   31  A    between atoms: _87  and  _90
REMARK   32  A    between atoms: _90  and  _91
REMARK   33  A    between atoms: _94  and  _96
REMARK   34  A    between atoms: _96  and  _97
REMARK   35  A    between atoms: _96  and  _99
REMARK   36  A    between atoms: _99  and  _100
REMARK   37  A    between atoms: _100  and  _101
REMARK   38  A    between atoms: _106  and  _108
REMARK   39  A    between atoms: _108  and  _109
REMARK   40  A    between atoms: _108  and  _111
REMARK   41  A    between atoms: _111  and  _112
REMARK   42  A    between atoms: _118  and  _120
REMARK   43  A    between atoms: _131  and  _134
REMARK   44  A    between atoms: _134  and  _135
REMARK   45  A    between atoms: _143  and  _144
REMARK   46  A    between atoms: _152  and  _154
REMARK   47  A    between atoms: _154  and  _155
REMARK   48  A    between atoms: _154  and  _157
REMARK   49  A    between atoms: _157  and  _158
REMARK   50  A    between atoms: _158  and  _159
REMARK   51  A    between atoms: _162  and  _164
REMARK   52  A    between atoms: _164  and  _165
REMARK   53  A    between atoms: _164  and  _167
REMARK   54  A    between atoms: _167  and  _168
REMARK   55  A    between atoms: _173  and  _175
REMARK   56  A    between atoms: _175  and  _176
REMARK   57  A    between atoms: _175  and  _178
REMARK   58  A    between atoms: _178  and  _179
REMARK   59  A    between atoms: _179  and  _180
REMARK   60  A    between atoms: _183  and  _185
REMARK   61  A    between atoms: _185  and  _186
REMARK   62  A    between atoms: _185  and  _188
REMARK   63  A    between atoms: _188  and  _189
REMARK   64  A    between atoms: _192  and  _194
REMARK   65  A    between atoms: _194  and  _195
REMARK   66  A    between atoms: _194  and  _197
REMARK   67  A    between atoms: _197  and  _198
REMARK   68  A    between atoms: _199  and  ZN_414
REMARK   69  A    between atoms: _203  and  _205
REMARK   70  A    between atoms: _205  and  _206
REMARK   71  A    between atoms: _205  and  _208
REMARK   72  A    between atoms: _208  and  _209
REMARK   73  A    between atoms: _212  and  _214
REMARK   74  A    between atoms: _214  and  _215
REMARK   75  A    between atoms: _214  and  _217
REMARK   76  A    between atoms: _220  and  _222
REMARK   77  A    between atoms: _222  and  _223
REMARK   78  A    between atoms: _222  and  _225
REMARK   79  A    between atoms: _225  and  _226
REMARK   80  A    between atoms: _231  and  _233
REMARK   81  A    between atoms: _233  and  _234
REMARK   82  A    between atoms: _233  and  _236
REMARK   83  A    between atoms: _236  and  _237
REMARK   84  A    between atoms: _243  and  _245
REMARK   85  A    between atoms: _245  and  _246
REMARK   86  A    between atoms: _245  and  _248
REMARK   87  A    between atoms: _251  and  _253
REMARK   88  A    between atoms: _253  and  _254
REMARK   89  A    between atoms: _253  and  _256
REMARK   90  A    between atoms: _256  and  _257
REMARK   91  A    between atoms: _260  and  _262
REMARK   92  A    between atoms: _262  and  _263
REMARK   93  A    between atoms: _266  and  _268
REMARK   94  A    between atoms: _268  and  _269
REMARK   95  A    between atoms: _268  and  _271
REMARK   96  A    between atoms: _274  and  _276
REMARK   97  A    between atoms: _276  and  _277
REMARK   98  A    between atoms: _276  and  _279
REMARK   99  A    between atoms: _279  and  _280
REMARK  100  A    between atoms: _283  and  _285
REMARK  101  A    between atoms: _285  and  _286
REMARK  102  A    between atoms: _288  and  _290
REMARK  103  A    between atoms: _290  and  _291
REMARK  104  A    between atoms: _290  and  _293
REMARK  105  A    between atoms: _293  and  _294
REMARK  106  A    between atoms: _296  and  _298
REMARK  107  A    between atoms: _298  and  _299
REMARK  108  A    between atoms: _298  and  _301
REMARK  109  A    between atoms: _301  and  _302
REMARK  110  A    between atoms: _305  and  _307
REMARK  111  A    between atoms: _307  and  _308
REMARK  112  A    between atoms: _307  and  _310
REMARK  113  A    between atoms: _310  and  _311
REMARK  114  A    between atoms: _314  and  _316
REMARK  115  A    between atoms: _316  and  _317
REMARK  116  A    between atoms: _316  and  _319
REMARK  117  A    between atoms: _319  and  _320
REMARK  118  A    between atoms: _324  and  _325
REMARK  119  A    between atoms: _331  and  _332
REMARK  120  A    between atoms: _337  and  _339
REMARK  121  A    between atoms: _339  and  _340
REMARK  122  A    between atoms: _339  and  _342
REMARK  123  A    between atoms: _342  and  _343
REMARK  124  A    between atoms: _346  and  _348
REMARK  125  A    between atoms: _348  and  _349
REMARK  126  A    between atoms: _348  and  _351
REMARK  127  A    between atoms: _351  and  _352
REMARK  128  A    between atoms: _355  and  _357
REMARK  129  A    between atoms: _357  and  _358
REMARK  130  A    between atoms: _357  and  _360
REMARK  131  A    between atoms: _362  and  _364
REMARK  132  A    between atoms: _364  and  _365
REMARK  133  A    between atoms: _364  and  _367
REMARK  134  A    between atoms: _370  and  _372
REMARK  135  A    between atoms: _372  and  _373
REMARK  136  A    between atoms: _372  and  _375
REMARK  137  A    between atoms: _375  and  _376
REMARK  138  A    between atoms: _386  and  _388
REMARK  139  A    between atoms: _388  and  _389
REMARK  140  A    between atoms: _388  and  _391
REMARK  141  A    between atoms: _391  and  _392
REMARK  142  A    between atoms: _397  and  _399
REMARK  143  A    between atoms: _399  and  _400
REMARK  144  A    between atoms: _399  and  _402
REMARK  145  A    between atoms: _402  and  _403
REMARK  146  A    between atoms: _403  and  _404
REMARK  147  A    between atoms: _404  and  _405
REMARK                            x       y       z     vdW  Elec       q    Type
REMARK                         _______ _______ _______ _____ _____    ______ ____
ROOT
ATOM      1  O   HOH     1      20.311   5.616  10.369  0.00  0.00    +0.000 OA
ENDROOT
TORSDOF 0
REMARK  Name = ../refined-set-2016/1zfq/1zfq_pocket.pdb
REMARK  147 active torsions:
REMARK  status: ('A' for Active; 'I' for Inactive)
REMARK    1  A    between atoms: _1  and  _3
REMARK    2  A    between atoms: _3  and  _4
REMARK    3  A    between atoms: _3  and  _6
REMARK    4  A    between atoms: _6  and  _7
REMARK    5  A    between atoms: _17  and  _19
REMARK    6  A    between atoms: _19  and  _20
REMARK    7  A    between atoms: _19  and  _22
REMARK    8  A    between atoms: _22  and  _23
REMARK    9  A    between atoms: _28  and  _29
REMARK   10  A    between atoms: _31  and  _33
REMARK   11  A    between atoms: _33  and  _34
REMARK   12  A    between atoms: _33  and  _36
REMARK   13  A    between atoms: _36  and  _37
REMARK   14  A    between atoms: _40  and  _41
REMARK   15  A    between atoms: _46  and  _48
REMARK   16  A    between atoms: _48  and  _49
REMARK   17  A    between atoms: _48  and  _51
REMARK   18  A    between atoms: _51  and  _52
REMARK   19  A    between atoms: _57  and  _59
REMARK   20  A    between atoms: _59  and  _60
REMARK   21  A    between atoms: _59  and  _62
REMARK   22  A    between atoms: _62  and  _63
REMARK   23  A    between atoms: _68  and  _70
REMARK   24  A    between atoms: _70  and  _71
REMARK   25  A    between atoms: _74  and  _76
REMARK   26  A    between atoms: _76  and  _77
REMARK   27  A    between atoms: _76  and  _79
REMARK   28  A    between atoms: _79  and  _80
REMARK   29  A    between atoms: _85  and  _87
REMARK   30  A    between atoms: _87  and  _88
REMARK   31  A    between atoms: _87  and  _90
REMARK   32  A    between atoms: _90  and  _91
REMARK   33  A    between atoms: _94  and  _96
REMARK   34  A    between atoms: _96  and  _97
REMARK   35  A    between atoms: _96  and  _99
REMARK   36  A    between atoms: _99  and  _100
REMARK   37  A    between atoms: _100  and  _101
REMARK   38  A    between atoms: _106  and  _108
REMARK   39  A    between atoms: _108  and  _109
REMARK   40  A    between atoms: _108  and  _111
REMARK   41  A    between atoms: _111  and  _112
REMARK   42  A    between atoms: _118  and  _120
REMARK   43  A    between atoms: _131  and  _134
REMARK   44  A    between atoms: _134  and  _135
REMARK   45  A    between atoms: _143  and  _144
REMARK   46  A    between atoms: _152  and  _154
REMARK   47  A    between atoms: _154  and  _155
REMARK   48  A    between atoms: _154  and  _157
REMARK   49  A    between atoms: _157  and  _158
REMARK   50  A    between atoms: _158  and  _159
REMARK   51  A    between atoms: _162  and  _164
REMARK   52  A    between atoms: _164  and  _165
REMARK   53  A    between atoms: _164  and  _167
REMARK   54  A    between atoms: _167  and  _168
REMARK   55  A    between atoms: _173  and  _175
REMARK   56  A    between atoms: _175  and  _176
REMARK   57  A    between atoms: _175  and  _178
REMARK   58  A    between atoms: _178  and  _179
REMARK   59  A    between atoms: _179  and  _180
REMARK   60  A    between atoms: _183  and  _185
REMARK   61  A    between atoms: _185  and  _186
REMARK   62  A    between atoms: _185  and  _188
REMARK   63  A    between atoms: _188  and  _189
REMARK   64  A    between atoms: _192  and  _194
REMARK   65  A    between atoms: _194  and  _195
REMARK   66  A    between atoms: _194  and  _197
REMARK   67  A    between atoms: _197  and  _198
REMARK   68  A    between atoms: _199  and  ZN_414
REMARK   69  A    between atoms: _203  and  _205
REMARK   70  A    between atoms: _205  and  _206
REMARK   71  A    between atoms: _205  and  _208
REMARK   72  A    between atoms: _208  and  _209
REMARK   73  A    between atoms: _212  and  _214
REMARK   74  A    between atoms: _214  and  _215
REMARK   75  A    between atoms: _214  and  _217
REMARK   76  A    between atoms: _220  and  _222
REMARK   77  A    between atoms: _222  and  _223
REMARK   78  A    between atoms: _222  and  _225
REMARK   79  A    between atoms: _225  and  _226
REMARK   80  A    between atoms: _231  and  _233
REMARK   81  A    between atoms: _233  and  _234
REMARK   82  A    between atoms: _233  and  _236
REMARK   83  A    between atoms: _236  and  _237
REMARK   84  A    between atoms: _243  and  _245
REMARK   85  A    between atoms: _245  and  _246
REMARK   86  A    between atoms: _245  and  _248
REMARK   87  A    between atoms: _251  and  _253
REMARK   88  A    between atoms: _253  and  _254
REMARK   89  A    between atoms: _253  and  _256
REMARK   90  A    between atoms: _256  and  _257
REMARK   91  A    between atoms: _260  and  _262
REMARK   92  A    between atoms: _262  and  _263
REMARK   93  A    between atoms: _266  and  _268
REMARK   94  A    between atoms: _268  and  _269
REMARK   95  A    between atoms: _268  and  _271
REMARK   96  A    between atoms: _274  and  _276
REMARK   97  A    between atoms: _276  and  _277
REMARK   98  A    between atoms: _276  and  _279
REMARK   99  A    between atoms: _279  and  _280
REMARK  100  A    between atoms: _283  and  _285
REMARK  101  A    between atoms: _285  and  _286
REMARK  102  A    between atoms: _288  and  _290
REMARK  103  A    between atoms: _290  and  _291
REMARK  104  A    between atoms: _290  and  _293
REMARK  105  A    between atoms: _293  and  _294
REMARK  106  A    between atoms: _296  and  _298
REMARK  107  A    between atoms: _298  and  _299
REMARK  108  A    between atoms: _298  and  _301
REMARK  109  A    between atoms: _301  and  _302
REMARK  110  A    between atoms: _305  and  _307
REMARK  111  A    between atoms: _307  and  _308
REMARK  112  A    between atoms: _307  and  _310
REMARK  113  A    between atoms: _310  and  _311
REMARK  114  A    between atoms: _314  and  _316
REMARK  115  A    between atoms: _316  and  _317
REMARK  116  A    between atoms: _316  and  _319
REMARK  117  A    between atoms: _319  and  _320
REMARK  118  A    between atoms: _324  and  _325
REMARK  119  A    between atoms: _331  and  _332
REMARK  120  A    between atoms: _337  and  _339
REMARK  121  A    between atoms: _339  and  _340
REMARK  122  A    between atoms: _339  and  _342
REMARK  123  A    between atoms: _342  and  _343
REMARK  124  A    between atoms: _346  and  _348
REMARK  125  A    between atoms: _348  and  _349
REMARK  126  A    between atoms: _348  and  _351
REMARK  127  A    between atoms: _351  and  _352
REMARK  128  A    between atoms: _355  and  _357
REMARK  129  A    between atoms: _357  and  _358
REMARK  130  A    between atoms: _357  and  _360
REMARK  131  A    between atoms: _362  and  _364
REMARK  132  A    between atoms: _364  and  _365
REMARK  133  A    between atoms: _364  and  _367
REMARK  134  A    between atoms: _370  and  _372
REMARK  135  A    between atoms: _372  and  _373
REMARK  136  A    between atoms: _372  and  _375
REMARK  137  A    between atoms: _375  and  _376
REMARK  138  A    between atoms: _386  and  _388
REMARK  139  A    between atoms: _388  and  _389
REMARK  140  A    between atoms: _388  and  _391
REMARK  141  A    between atoms: _391  and  _392
REMARK  142  A    between atoms: _397  and  _399
REMARK  143  A    between atoms: _399  and  _400
REMARK  144  A    between atoms: _399  and  _402
REMARK  145  A    between atoms: _402  and  _403
REMARK  146  A    between atoms: _403  and  _404
REMARK  147  A    between atoms: _404  and  _405
REMARK                            x       y       z     vdW  Elec       q    Type
REMARK                         _______ _______ _______ _____ _____    ______ ____
ROOT
ATOM      1  O   HOH     1      15.494  10.342  11.758  0.00  0.00    +0.000 OA
ENDROOT
TORSDOF 0
REMARK  Name = ../refined-set-2016/1zfq/1zfq_pocket.pdb
REMARK  147 active torsions:
REMARK  status: ('A' for Active; 'I' for Inactive)
REMARK    1  A    between atoms: _1  and  _3
REMARK    2  A    between atoms: _3  and  _4
REMARK    3  A    between atoms: _3  and  _6
REMARK    4  A    between atoms: _6  and  _7
REMARK    5  A    between atoms: _17  and  _19
REMARK    6  A    between atoms: _19  and  _20
REMARK    7  A    between atoms: _19  and  _22
REMARK    8  A    between atoms: _22  and  _23
REMARK    9  A    between atoms: _28  and  _29
REMARK   10  A    between atoms: _31  and  _33
REMARK   11  A    between atoms: _33  and  _34
REMARK   12  A    between atoms: _33  and  _36
REMARK   13  A    between atoms: _36  and  _37
REMARK   14  A    between atoms: _40  and  _41
REMARK   15  A    between atoms: _46  and  _48
REMARK   16  A    between atoms: _48  and  _49
REMARK   17  A    between atoms: _48  and  _51
REMARK   18  A    between atoms: _51  and  _52
REMARK   19  A    between atoms: _57  and  _59
REMARK   20  A    between atoms: _59  and  _60
REMARK   21  A    between atoms: _59  and  _62
REMARK   22  A    between atoms: _62  and  _63
REMARK   23  A    between atoms: _68  and  _70
REMARK   24  A    between atoms: _70  and  _71
REMARK   25  A    between atoms: _74  and  _76
REMARK   26  A    between atoms: _76  and  _77
REMARK   27  A    between atoms: _76  and  _79
REMARK   28  A    between atoms: _79  and  _80
REMARK   29  A    between atoms: _85  and  _87
REMARK   30  A    between atoms: _87  and  _88
REMARK   31  A    between atoms: _87  and  _90
REMARK   32  A    between atoms: _90  and  _91
REMARK   33  A    between atoms: _94  and  _96
REMARK   34  A    between atoms: _96  and  _97
REMARK   35  A    between atoms: _96  and  _99
REMARK   36  A    between atoms: _99  and  _100
REMARK   37  A    between atoms: _100  and  _101
REMARK   38  A    between atoms: _106  and  _108
REMARK   39  A    between atoms: _108  and  _109
REMARK   40  A    between atoms: _108  and  _111
REMARK   41  A    between atoms: _111  and  _112
REMARK   42  A    between atoms: _118  and  _120
REMARK   43  A    between atoms: _131  and  _134
REMARK   44  A    between atoms: _134  and  _135
REMARK   45  A    between atoms: _143  and  _144
REMARK   46  A    between atoms: _152  and  _154
REMARK   47  A    between atoms: _154  and  _155
REMARK   48  A    between atoms: _154  and  _157
REMARK   49  A    between atoms: _157  and  _158
REMARK   50  A    between atoms: _158  and  _159
REMARK   51  A    between atoms: _162  and  _164
REMARK   52  A    between atoms: _164  and  _165
REMARK   53  A    between atoms: _164  and  _167
REMARK   54  A    between atoms: _167  and  _168
REMARK   55  A    between atoms: _173  and  _175
REMARK   56  A    between atoms: _175  and  _176
REMARK   57  A    between atoms: _175  and  _178
REMARK   58  A    between atoms: _178  and  _179
REMARK   59  A    between atoms: _179  and  _180
REMARK   60  A    between atoms: _183  and  _185
REMARK   61  A    between atoms: _185  and  _186
REMARK   62  A    between atoms: _185  and  _188
REMARK   63  A    between atoms: _188  and  _189
REMARK   64  A    between atoms: _192  and  _194
REMARK   65  A    between atoms: _194  and  _195
REMARK   66  A    between atoms: _194  and  _197
REMARK   67  A    between atoms: _197  and  _198
REMARK   68  A    between atoms: _199  and  ZN_414
REMARK   69  A    between atoms: _203  and  _205
REMARK   70  A    between atoms: _205  and  _206
REMARK   71  A    between atoms: _205  and  _208
REMARK   72  A    between atoms: _208  and  _209
REMARK   73  A    between atoms: _212  and  _214
REMARK   74  A    between atoms: _214  and  _215
REMARK   75  A    between atoms: _214  and  _217
REMARK   76  A    between atoms: _220  and  _222
REMARK   77  A    between atoms: _222  and  _223
REMARK   78  A    between atoms: _222  and  _225
REMARK   79  A    between atoms: _225  and  _226
REMARK   80  A    between atoms: _231  and  _233
REMARK   81  A    between atoms: _233  and  _234
REMARK   82  A    between atoms: _233  and  _236
REMARK   83  A    between atoms: _236  and  _237
REMARK   84  A    between atoms: _243  and  _245
REMARK   85  A    between atoms: _245  and  _246
REMARK   86  A    between atoms: _245  and  _248
REMARK   87  A    between atoms: _251  and  _253
REMARK   88  A    between atoms: _253  and  _254
REMARK   89  A    between atoms: _253  and  _256
REMARK   90  A    between atoms: _256  and  _257
REMARK   91  A    between atoms: _260  and  _262
REMARK   92  A    between atoms: _262  and  _263
REMARK   93  A    between atoms: _266  and  _268
REMARK   94  A    between atoms: _268  and  _269
REMARK   95  A    between atoms: _268  and  _271
REMARK   96  A    between atoms: _274  and  _276
REMARK   97  A    between atoms: _276  and  _277
REMARK   98  A    between atoms: _276  and  _279
REMARK   99  A    between atoms: _279  and  _280
REMARK  100  A    between atoms: _283  and  _285
REMARK  101  A    between atoms: _285  and  _286
REMARK  102  A    between atoms: _288  and  _290
REMARK  103  A    between atoms: _290  and  _291
REMARK  104  A    between atoms: _290  and  _293
REMARK  105  A    between atoms: _293  and  _294
REMARK  106  A    between atoms: _296  and  _298
REMARK  107  A    between atoms: _298  and  _299
REMARK  108  A    between atoms: _298  and  _301
REMARK  109  A    between atoms: _301  and  _302
REMARK  110  A    between atoms: _305  and  _307
REMARK  111  A    between atoms: _307  and  _308
REMARK  112  A    between atoms: _307  and  _310
REMARK  113  A    between atoms: _310  and  _311
REMARK  114  A    between atoms: _314  and  _316
REMARK  115  A    between atoms: _316  and  _317
REMARK  116  A    between atoms: _316  and  _319
REMARK  117  A    between atoms: _319  and  _320
REMARK  118  A    between atoms: _324  and  _325
REMARK  119  A    between atoms: _331  and  _332
REMARK  120  A    between atoms: _337  and  _339
REMARK  121  A    between atoms: _339  and  _340
REMARK  122  A    between atoms: _339  and  _342
REMARK  123  A    between atoms: _342  and  _343
REMARK  124  A    between atoms: _346  and  _348
REMARK  125  A    between atoms: _348  and  _349
REMARK  126  A    between atoms: _348  and  _351
REMARK  127  A    between atoms: _351  and  _352
REMARK  128  A    between atoms: _355  and  _357
REMARK  129  A    between atoms: _357  and  _358
REMARK  130  A    between atoms: _357  and  _360
REMARK  131  A    between atoms: _362  and  _364
REMARK  132  A    between atoms: _364  and  _365
REMARK  133  A    between atoms: _364  and  _367
REMARK  134  A    between atoms: _370  and  _372
REMARK  135  A    between atoms: _372  and  _373
REMARK  136  A    between atoms: _372  and  _375
REMARK  137  A    between atoms: _375  and  _376
REMARK  138  A    between atoms: _386  and  _388
REMARK  139  A    between atoms: _388  and  _389
REMARK  140  A    between atoms: _388  and  _391
REMARK  141  A    between atoms: _391  and  _392
REMARK  142  A    between atoms: _397  and  _399
REMARK  143  A    between atoms: _399  and  _400
REMARK  144  A    between atoms: _399  and  _402
REMARK  145  A    between atoms: _402  and  _403
REMARK  146  A    between atoms: _403  and  _404
REMARK  147  A    between atoms: _404  and  _405
REMARK                            x       y       z     vdW  Elec       q    Type
REMARK                         _______ _______ _______ _____ _____    ______ ____
ROOT
ATOM      1  O   HOH     1      24.366   6.113  10.675  0.00  0.00    +0.000 OA
ENDROOT
TORSDOF 0
