REMARK  Name = ../refined-set-2016/1a94/1a94_pocket.pdb
REMARK  233 active torsions:
REMARK  status: ('A' for Active; 'I' for Inactive)
REMARK    1  A    between atoms: _1  and  _3
REMARK    2  A    between atoms: _3  and  _4
REMARK    3  A    between atoms: _3  and  _6
REMARK    4  A    between atoms: _6  and  _7
REMARK    5  A    between atoms: _7  and  _8
REMARK    6  A    between atoms: _8  and  _9
REMARK    7  A    between atoms: _18  and  _20
REMARK    8  A    between atoms: _20  and  _21
REMARK    9  A    between atoms: _20  and  _23
REMARK   10  A    between atoms: _23  and  _24
REMARK   11  A    between atoms: _27  and  _29
REMARK   12  A    between atoms: _29  and  _30
REMARK   13  A    between atoms: _29  and  _32
REMARK   14  A    between atoms: _32  and  _33
REMARK   15  A    between atoms: _36  and  _38
REMARK   16  A    between atoms: _38  and  _39
REMARK   17  A    between atoms: _38  and  _41
REMARK   18  A    between atoms: _41  and  _42
REMARK   19  A    between atoms: _45  and  _47
REMARK   20  A    between atoms: _47  and  _48
REMARK   21  A    between atoms: _47  and  _50
REMARK   22  A    between atoms: _50  and  _51
REMARK   23  A    between atoms: _54  and  _56
REMARK   24  A    between atoms: _56  and  _57
REMARK   25  A    between atoms: _59  and  _61
REMARK   26  A    between atoms: _61  and  _62
REMARK   27  A    between atoms: _65  and  _67
REMARK   28  A    between atoms: _67  and  _68
REMARK   29  A    between atoms: _67  and  _70
REMARK   30  A    between atoms: _70  and  _71
REMARK   31  A    between atoms: _74  and  _76
REMARK   32  A    between atoms: _76  and  _77
REMARK   33  A    between atoms: _76  and  _79
REMARK   34  A    between atoms: _79  and  _80
REMARK   35  A    between atoms: _83  and  _85
REMARK   36  A    between atoms: _85  and  _86
REMARK   37  A    between atoms: _85  and  _88
REMARK   38  A    between atoms: _88  and  _89
REMARK   39  A    between atoms: _92  and  _94
REMARK   40  A    between atoms: _94  and  _95
REMARK   41  A    between atoms: _94  and  _97
REMARK   42  A    between atoms: _100  and  _102
REMARK   43  A    between atoms: _102  and  _103
REMARK   44  A    between atoms: _102  and  _105
REMARK   45  A    between atoms: _105  and  _106
REMARK   46  A    between atoms: _106  and  _107
REMARK   47  A    between atoms: _107  and  _108
REMARK   48  A    between atoms: _108  and  _109
REMARK   49  A    between atoms: _113  and  _115
REMARK   50  A    between atoms: _115  and  _116
REMARK   51  A    between atoms: _115  and  _118
REMARK   52  A    between atoms: _118  and  _119
REMARK   53  A    between atoms: _119  and  _120
REMARK   54  A    between atoms: _122  and  _124
REMARK   55  A    between atoms: _124  and  _125
REMARK   56  A    between atoms: _124  and  _127
REMARK   57  A    between atoms: _127  and  _128
REMARK   58  A    between atoms: _131  and  _133
REMARK   59  A    between atoms: _133  and  _134
REMARK   60  A    between atoms: _136  and  _138
REMARK   61  A    between atoms: _138  and  _139
REMARK   62  A    between atoms: _141  and  _143
REMARK   63  A    between atoms: _143  and  _144
REMARK   64  A    between atoms: _143  and  _146
REMARK   65  A    between atoms: _146  and  _147
REMARK   66  A    between atoms: _150  and  _152
REMARK   67  A    between atoms: _152  and  _153
REMARK   68  A    between atoms: _155  and  _157
REMARK   69  A    between atoms: _157  and  _158
REMARK   70  A    between atoms: _160  and  _162
REMARK   71  A    between atoms: _162  and  _163
REMARK   72  A    between atoms: _162  and  _165
REMARK   73  A    between atoms: _165  and  _166
REMARK   74  A    between atoms: _172  and  _174
REMARK   75  A    between atoms: _174  and  _175
REMARK   76  A    between atoms: _174  and  _177
REMARK   77  A    between atoms: _177  and  _178
REMARK   78  A    between atoms: _181  and  _183
REMARK   79  A    between atoms: _183  and  _184
REMARK   80  A    between atoms: _183  and  _186
REMARK   81  A    between atoms: _189  and  _191
REMARK   82  A    between atoms: _191  and  _192
REMARK   83  A    between atoms: _191  and  _194
REMARK   84  A    between atoms: _194  and  _195
REMARK   85  A    between atoms: _195  and  _196
REMARK   86  A    between atoms: _201  and  _203
REMARK   87  A    between atoms: _203  and  _204
REMARK   88  A    between atoms: _203  and  _206
REMARK   89  A    between atoms: _206  and  _207
REMARK   90  A    between atoms: _210  and  _212
REMARK   91  A    between atoms: _212  and  _213
REMARK   92  A    between atoms: _212  and  _215
REMARK   93  A    between atoms: _215  and  _216
REMARK   94  A    between atoms: _219  and  _221
REMARK   95  A    between atoms: _221  and  _222
REMARK   96  A    between atoms: _221  and  _224
REMARK   97  A    between atoms: _224  and  _225
REMARK   98  A    between atoms: _229  and  _230
REMARK   99  A    between atoms: _235  and  _237
REMARK  100  A    between atoms: _237  and  _238
REMARK  101  A    between atoms: _237  and  _240
REMARK  102  A    between atoms: _243  and  _245
REMARK  103  A    between atoms: _245  and  _246
REMARK  104  A    between atoms: _245  and  _248
REMARK  105  A    between atoms: _248  and  _249
REMARK  106  A    between atoms: _254  and  _256
REMARK  107  A    between atoms: _256  and  _257
REMARK  108  A    between atoms: _256  and  _259
REMARK  109  A    between atoms: _259  and  _260
REMARK  110  A    between atoms: _263  and  _265
REMARK  111  A    between atoms: _265  and  _266
REMARK  112  A    between atoms: _265  and  _268
REMARK  113  A    between atoms: _268  and  _269
REMARK  114  A    between atoms: _272  and  _274
REMARK  115  A    between atoms: _274  and  _275
REMARK  116  A    between atoms: _277  and  _279
REMARK  117  A    between atoms: _279  and  _280
REMARK  118  A    between atoms: _279  and  _282
REMARK  119  A    between atoms: _282  and  _283
REMARK  120  A    between atoms: _283  and  _284
REMARK  121  A    between atoms: _284  and  _285
REMARK  122  A    between atoms: _294  and  _296
REMARK  123  A    between atoms: _296  and  _297
REMARK  124  A    between atoms: _296  and  _299
REMARK  125  A    between atoms: _299  and  _300
REMARK  126  A    between atoms: _305  and  _307
REMARK  127  A    between atoms: _307  and  _308
REMARK  128  A    between atoms: _307  and  _310
REMARK  129  A    between atoms: _310  and  _311
REMARK  130  A    between atoms: _311  and  _312
REMARK  131  A    between atoms: _312  and  _313
REMARK  132  A    between atoms: _322  and  _324
REMARK  133  A    between atoms: _324  and  _325
REMARK  134  A    between atoms: _324  and  _327
REMARK  135  A    between atoms: _327  and  _328
REMARK  136  A    between atoms: _331  and  _333
REMARK  137  A    between atoms: _333  and  _334
REMARK  138  A    between atoms: _333  and  _336
REMARK  139  A    between atoms: _336  and  _337
REMARK  140  A    between atoms: _340  and  _342
REMARK  141  A    between atoms: _342  and  _343
REMARK  142  A    between atoms: _342  and  _345
REMARK  143  A    between atoms: _345  and  _346
REMARK  144  A    between atoms: _349  and  _351
REMARK  145  A    between atoms: _351  and  _352
REMARK  146  A    between atoms: _354  and  _356
REMARK  147  A    between atoms: _356  and  _357
REMARK  148  A    between atoms: _360  and  _362
REMARK  149  A    between atoms: _362  and  _363
REMARK  150  A    between atoms: _362  and  _365
REMARK  151  A    between atoms: _365  and  _366
REMARK  152  A    between atoms: _369  and  _371
REMARK  153  A    between atoms: _371  and  _372
REMARK  154  A    between atoms: _371  and  _374
REMARK  155  A    between atoms: _374  and  _375
REMARK  156  A    between atoms: _378  and  _380
REMARK  157  A    between atoms: _380  and  _381
REMARK  158  A    between atoms: _380  and  _383
REMARK  159  A    between atoms: _383  and  _384
REMARK  160  A    between atoms: _387  and  _389
REMARK  161  A    between atoms: _389  and  _390
REMARK  162  A    between atoms: _389  and  _392
REMARK  163  A    between atoms: _395  and  _397
REMARK  164  A    between atoms: _397  and  _398
REMARK  165  A    between atoms: _397  and  _400
REMARK  166  A    between atoms: _400  and  _401
REMARK  167  A    between atoms: _401  and  _402
REMARK  168  A    between atoms: _402  and  _403
REMARK  169  A    between atoms: _403  and  _404
REMARK  170  A    between atoms: _408  and  _410
REMARK  171  A    between atoms: _410  and  _411
REMARK  172  A    between atoms: _410  and  _413
REMARK  173  A    between atoms: _413  and  _414
REMARK  174  A    between atoms: _414  and  _415
REMARK  175  A    between atoms: _417  and  _419
REMARK  176  A    between atoms: _419  and  _420
REMARK  177  A    between atoms: _419  and  _422
REMARK  178  A    between atoms: _422  and  _423
REMARK  179  A    between atoms: _426  and  _428
REMARK  180  A    between atoms: _428  and  _429
REMARK  181  A    between atoms: _431  and  _433
REMARK  182  A    between atoms: _433  and  _434
REMARK  183  A    between atoms: _436  and  _438
REMARK  184  A    between atoms: _438  and  _439
REMARK  185  A    between atoms: _438  and  _441
REMARK  186  A    between atoms: _441  and  _442
REMARK  187  A    between atoms: _445  and  _447
REMARK  188  A    between atoms: _447  and  _448
REMARK  189  A    between atoms: _450  and  _452
REMARK  190  A    between atoms: _452  and  _453
REMARK  191  A    between atoms: _455  and  _457
REMARK  192  A    between atoms: _457  and  _458
REMARK  193  A    between atoms: _457  and  _460
REMARK  194  A    between atoms: _460  and  _461
REMARK  195  A    between atoms: _467  and  _469
REMARK  196  A    between atoms: _469  and  _470
REMARK  197  A    between atoms: _469  and  _472
REMARK  198  A    between atoms: _472  and  _473
REMARK  199  A    between atoms: _476  and  _478
REMARK  200  A    between atoms: _478  and  _479
REMARK  201  A    between atoms: _478  and  _481
REMARK  202  A    between atoms: _484  and  _486
REMARK  203  A    between atoms: _486  and  _487
REMARK  204  A    between atoms: _486  and  _489
REMARK  205  A    between atoms: _489  and  _490
REMARK  206  A    between atoms: _493  and  _495
REMARK  207  A    between atoms: _495  and  _496
REMARK  208  A    between atoms: _495  and  _498
REMARK  209  A    between atoms: _498  and  _499
REMARK  210  A    between atoms: _503  and  _504
REMARK  211  A    between atoms: _509  and  _511
REMARK  212  A    between atoms: _511  and  _512
REMARK  213  A    between atoms: _511  and  _514
REMARK  214  A    between atoms: _517  and  _519
REMARK  215  A    between atoms: _519  and  _520
REMARK  216  A    between atoms: _519  and  _522
REMARK  217  A    between atoms: _522  and  _523
REMARK  218  A    between atoms: _528  and  _530
REMARK  219  A    between atoms: _530  and  _531
REMARK  220  A    between atoms: _530  and  _533
REMARK  221  A    between atoms: _533  and  _534
REMARK  222  A    between atoms: _537  and  _539
REMARK  223  A    between atoms: _539  and  _540
REMARK  224  A    between atoms: _539  and  _542
REMARK  225  A    between atoms: _542  and  _543
REMARK  226  A    between atoms: _546  and  _548
REMARK  227  A    between atoms: _548  and  _549
REMARK  228  A    between atoms: _551  and  _553
REMARK  229  A    between atoms: _553  and  _554
REMARK  230  A    between atoms: _553  and  _556
REMARK  231  A    between atoms: _556  and  _557
REMARK  232  A    between atoms: _557  and  _558
REMARK  233  A    between atoms: _558  and  _559
REMARK                            x       y       z     vdW  Elec       q    Type
REMARK                         _______ _______ _______ _____ _____    ______ ____
ROOT
ATOM      1  NE  ARG A   1      52.222  16.496  23.290  0.00  0.00    -0.265 N 
ATOM      2  CZ  ARG A   1      51.149  16.952  23.943  0.00  0.00    +0.342 C 
ATOM      3  NH2 ARG A   1      51.137  16.937  25.281  0.00  0.00    -0.292 N 
ATOM      4 HH21 ARG A   1      51.958  16.572  25.804  0.00  0.00    +0.255 HD
ATOM      5 HH22 ARG A   1      50.306  17.290  25.798  0.00  0.00    +0.255 HD
ATOM      6  NH1 ARG A   1      50.054  17.340  23.279  0.00  0.00    -0.292 N 
ATOM      7 HH11 ARG A   1      49.227  17.693  23.801  0.00  0.00    +0.255 HD
ATOM      8 HH12 ARG A   1      50.030  17.289  22.241  0.00  0.00    +0.255 HD
ATOM      9  HE  ARG A   1      53.052  16.232  23.858  0.00  0.00    +0.259 HD
ENDROOT
BRANCH   1  10
ATOM     10  CD  ARG A   1      52.320  16.339  21.837  0.00  0.00    +0.174 C 
BRANCH  10  11
ATOM     11  CG  ARG A   1      53.678  16.700  21.287  0.00  0.00    +0.045 C 
BRANCH  11  12
ATOM     12  CB  ARG A   1      54.099  15.744  20.180  0.00  0.00    +0.029 C 
BRANCH  12  13
ATOM     13  CA  ARG A   1      55.162  16.309  19.237  0.00  0.00    +0.133 C 
BRANCH  13  14
ATOM     14  N   ARG A   1      54.528  16.826  18.035  0.00  0.00    -0.239 NA
ATOM     15  H   ARG A   1      53.503  16.698  17.918  0.00  0.00    +0.142 HD
ENDBRANCH  13  14
BRANCH  13  16
ATOM     16  C   ARG A   1      56.099  15.201  18.765  0.00  0.00    +0.224 C 
ATOM     17  O   ARG A   1      55.740  14.393  17.890  0.00  0.00    -0.287 OA
ENDBRANCH  13  16
ENDBRANCH  12  13
ENDBRANCH  11  12
ENDBRANCH  10  11
ENDBRANCH   1  10
TORSDOF 6
REMARK  Name = ../refined-set-2016/1a94/1a94_pocket.pdb
REMARK  233 active torsions:
REMARK  status: ('A' for Active; 'I' for Inactive)
REMARK    1  A    between atoms: _1  and  _3
REMARK    2  A    between atoms: _3  and  _4
REMARK    3  A    between atoms: _3  and  _6
REMARK    4  A    between atoms: _6  and  _7
REMARK    5  A    between atoms: _7  and  _8
REMARK    6  A    between atoms: _8  and  _9
REMARK    7  A    between atoms: _18  and  _20
REMARK    8  A    between atoms: _20  and  _21
REMARK    9  A    between atoms: _20  and  _23
REMARK   10  A    between atoms: _23  and  _24
REMARK   11  A    between atoms: _27  and  _29
REMARK   12  A    between atoms: _29  and  _30
REMARK   13  A    between atoms: _29  and  _32
REMARK   14  A    between atoms: _32  and  _33
REMARK   15  A    between atoms: _36  and  _38
REMARK   16  A    between atoms: _38  and  _39
REMARK   17  A    between atoms: _38  and  _41
REMARK   18  A    between atoms: _41  and  _42
REMARK   19  A    between atoms: _45  and  _47
REMARK   20  A    between atoms: _47  and  _48
REMARK   21  A    between atoms: _47  and  _50
REMARK   22  A    between atoms: _50  and  _51
REMARK   23  A    between atoms: _54  and  _56
REMARK   24  A    between atoms: _56  and  _57
REMARK   25  A    between atoms: _59  and  _61
REMARK   26  A    between atoms: _61  and  _62
REMARK   27  A    between atoms: _65  and  _67
REMARK   28  A    between atoms: _67  and  _68
REMARK   29  A    between atoms: _67  and  _70
REMARK   30  A    between atoms: _70  and  _71
REMARK   31  A    between atoms: _74  and  _76
REMARK   32  A    between atoms: _76  and  _77
REMARK   33  A    between atoms: _76  and  _79
REMARK   34  A    between atoms: _79  and  _80
REMARK   35  A    between atoms: _83  and  _85
REMARK   36  A    between atoms: _85  and  _86
REMARK   37  A    between atoms: _85  and  _88
REMARK   38  A    between atoms: _88  and  _89
REMARK   39  A    between atoms: _92  and  _94
REMARK   40  A    between atoms: _94  and  _95
REMARK   41  A    between atoms: _94  and  _97
REMARK   42  A    between atoms: _100  and  _102
REMARK   43  A    between atoms: _102  and  _103
REMARK   44  A    between atoms: _102  and  _105
REMARK   45  A    between atoms: _105  and  _106
REMARK   46  A    between atoms: _106  and  _107
REMARK   47  A    between atoms: _107  and  _108
REMARK   48  A    between atoms: _108  and  _109
REMARK   49  A    between atoms: _113  and  _115
REMARK   50  A    between atoms: _115  and  _116
REMARK   51  A    between atoms: _115  and  _118
REMARK   52  A    between atoms: _118  and  _119
REMARK   53  A    between atoms: _119  and  _120
REMARK   54  A    between atoms: _122  and  _124
REMARK   55  A    between atoms: _124  and  _125
REMARK   56  A    between atoms: _124  and  _127
REMARK   57  A    between atoms: _127  and  _128
REMARK   58  A    between atoms: _131  and  _133
REMARK   59  A    between atoms: _133  and  _134
REMARK   60  A    between atoms: _136  and  _138
REMARK   61  A    between atoms: _138  and  _139
REMARK   62  A    between atoms: _141  and  _143
REMARK   63  A    between atoms: _143  and  _144
REMARK   64  A    between atoms: _143  and  _146
REMARK   65  A    between atoms: _146  and  _147
REMARK   66  A    between atoms: _150  and  _152
REMARK   67  A    between atoms: _152  and  _153
REMARK   68  A    between atoms: _155  and  _157
REMARK   69  A    between atoms: _157  and  _158
REMARK   70  A    between atoms: _160  and  _162
REMARK   71  A    between atoms: _162  and  _163
REMARK   72  A    between atoms: _162  and  _165
REMARK   73  A    between atoms: _165  and  _166
REMARK   74  A    between atoms: _172  and  _174
REMARK   75  A    between atoms: _174  and  _175
REMARK   76  A    between atoms: _174  and  _177
REMARK   77  A    between atoms: _177  and  _178
REMARK   78  A    between atoms: _181  and  _183
REMARK   79  A    between atoms: _183  and  _184
REMARK   80  A    between atoms: _183  and  _186
REMARK   81  A    between atoms: _189  and  _191
REMARK   82  A    between atoms: _191  and  _192
REMARK   83  A    between atoms: _191  and  _194
REMARK   84  A    between atoms: _194  and  _195
REMARK   85  A    between atoms: _195  and  _196
REMARK   86  A    between atoms: _201  and  _203
REMARK   87  A    between atoms: _203  and  _204
REMARK   88  A    between atoms: _203  and  _206
REMARK   89  A    between atoms: _206  and  _207
REMARK   90  A    between atoms: _210  and  _212
REMARK   91  A    between atoms: _212  and  _213
REMARK   92  A    between atoms: _212  and  _215
REMARK   93  A    between atoms: _215  and  _216
REMARK   94  A    between atoms: _219  and  _221
REMARK   95  A    between atoms: _221  and  _222
REMARK   96  A    between atoms: _221  and  _224
REMARK   97  A    between atoms: _224  and  _225
REMARK   98  A    between atoms: _229  and  _230
REMARK   99  A    between atoms: _235  and  _237
REMARK  100  A    between atoms: _237  and  _238
REMARK  101  A    between atoms: _237  and  _240
REMARK  102  A    between atoms: _243  and  _245
REMARK  103  A    between atoms: _245  and  _246
REMARK  104  A    between atoms: _245  and  _248
REMARK  105  A    between atoms: _248  and  _249
REMARK  106  A    between atoms: _254  and  _256
REMARK  107  A    between atoms: _256  and  _257
REMARK  108  A    between atoms: _256  and  _259
REMARK  109  A    between atoms: _259  and  _260
REMARK  110  A    between atoms: _263  and  _265
REMARK  111  A    between atoms: _265  and  _266
REMARK  112  A    between atoms: _265  and  _268
REMARK  113  A    between atoms: _268  and  _269
REMARK  114  A    between atoms: _272  and  _274
REMARK  115  A    between atoms: _274  and  _275
REMARK  116  A    between atoms: _277  and  _279
REMARK  117  A    between atoms: _279  and  _280
REMARK  118  A    between atoms: _279  and  _282
REMARK  119  A    between atoms: _282  and  _283
REMARK  120  A    between atoms: _283  and  _284
REMARK  121  A    between atoms: _284  and  _285
REMARK  122  A    between atoms: _294  and  _296
REMARK  123  A    between atoms: _296  and  _297
REMARK  124  A    between atoms: _296  and  _299
REMARK  125  A    between atoms: _299  and  _300
REMARK  126  A    between atoms: _305  and  _307
REMARK  127  A    between atoms: _307  and  _308
REMARK  128  A    between atoms: _307  and  _310
REMARK  129  A    between atoms: _310  and  _311
REMARK  130  A    between atoms: _311  and  _312
REMARK  131  A    between atoms: _312  and  _313
REMARK  132  A    between atoms: _322  and  _324
REMARK  133  A    between atoms: _324  and  _325
REMARK  134  A    between atoms: _324  and  _327
REMARK  135  A    between atoms: _327  and  _328
REMARK  136  A    between atoms: _331  and  _333
REMARK  137  A    between atoms: _333  and  _334
REMARK  138  A    between atoms: _333  and  _336
REMARK  139  A    between atoms: _336  and  _337
REMARK  140  A    between atoms: _340  and  _342
REMARK  141  A    between atoms: _342  and  _343
REMARK  142  A    between atoms: _342  and  _345
REMARK  143  A    between atoms: _345  and  _346
REMARK  144  A    between atoms: _349  and  _351
REMARK  145  A    between atoms: _351  and  _352
REMARK  146  A    between atoms: _354  and  _356
REMARK  147  A    between atoms: _356  and  _357
REMARK  148  A    between atoms: _360  and  _362
REMARK  149  A    between atoms: _362  and  _363
REMARK  150  A    between atoms: _362  and  _365
REMARK  151  A    between atoms: _365  and  _366
REMARK  152  A    between atoms: _369  and  _371
REMARK  153  A    between atoms: _371  and  _372
REMARK  154  A    between atoms: _371  and  _374
REMARK  155  A    between atoms: _374  and  _375
REMARK  156  A    between atoms: _378  and  _380
REMARK  157  A    between atoms: _380  and  _381
REMARK  158  A    between atoms: _380  and  _383
REMARK  159  A    between atoms: _383  and  _384
REMARK  160  A    between atoms: _387  and  _389
REMARK  161  A    between atoms: _389  and  _390
REMARK  162  A    between atoms: _389  and  _392
REMARK  163  A    between atoms: _395  and  _397
REMARK  164  A    between atoms: _397  and  _398
REMARK  165  A    between atoms: _397  and  _400
REMARK  166  A    between atoms: _400  and  _401
REMARK  167  A    between atoms: _401  and  _402
REMARK  168  A    between atoms: _402  and  _403
REMARK  169  A    between atoms: _403  and  _404
REMARK  170  A    between atoms: _408  and  _410
REMARK  171  A    between atoms: _410  and  _411
REMARK  172  A    between atoms: _410  and  _413
REMARK  173  A    between atoms: _413  and  _414
REMARK  174  A    between atoms: _414  and  _415
REMARK  175  A    between atoms: _417  and  _419
REMARK  176  A    between atoms: _419  and  _420
REMARK  177  A    between atoms: _419  and  _422
REMARK  178  A    between atoms: _422  and  _423
REMARK  179  A    between atoms: _426  and  _428
REMARK  180  A    between atoms: _428  and  _429
REMARK  181  A    between atoms: _431  and  _433
REMARK  182  A    between atoms: _433  and  _434
REMARK  183  A    between atoms: _436  and  _438
REMARK  184  A    between atoms: _438  and  _439
REMARK  185  A    between atoms: _438  and  _441
REMARK  186  A    between atoms: _441  and  _442
REMARK  187  A    between atoms: _445  and  _447
REMARK  188  A    between atoms: _447  and  _448
REMARK  189  A    between atoms: _450  and  _452
REMARK  190  A    between atoms: _452  and  _453
REMARK  191  A    between atoms: _455  and  _457
REMARK  192  A    between atoms: _457  and  _458
REMARK  193  A    between atoms: _457  and  _460
REMARK  194  A    between atoms: _460  and  _461
REMARK  195  A    between atoms: _467  and  _469
REMARK  196  A    between atoms: _469  and  _470
REMARK  197  A    between atoms: _469  and  _472
REMARK  198  A    between atoms: _472  and  _473
REMARK  199  A    between atoms: _476  and  _478
REMARK  200  A    between atoms: _478  and  _479
REMARK  201  A    between atoms: _478  and  _481
REMARK  202  A    between atoms: _484  and  _486
REMARK  203  A    between atoms: _486  and  _487
REMARK  204  A    between atoms: _486  and  _489
REMARK  205  A    between atoms: _489  and  _490
REMARK  206  A    between atoms: _493  and  _495
REMARK  207  A    between atoms: _495  and  _496
REMARK  208  A    between atoms: _495  and  _498
REMARK  209  A    between atoms: _498  and  _499
REMARK  210  A    between atoms: _503  and  _504
REMARK  211  A    between atoms: _509  and  _511
REMARK  212  A    between atoms: _511  and  _512
REMARK  213  A    between atoms: _511  and  _514
REMARK  214  A    between atoms: _517  and  _519
REMARK  215  A    between atoms: _519  and  _520
REMARK  216  A    between atoms: _519  and  _522
REMARK  217  A    between atoms: _522  and  _523
REMARK  218  A    between atoms: _528  and  _530
REMARK  219  A    between atoms: _530  and  _531
REMARK  220  A    between atoms: _530  and  _533
REMARK  221  A    between atoms: _533  and  _534
REMARK  222  A    between atoms: _537  and  _539
REMARK  223  A    between atoms: _539  and  _540
REMARK  224  A    between atoms: _539  and  _542
REMARK  225  A    between atoms: _542  and  _543
REMARK  226  A    between atoms: _546  and  _548
REMARK  227  A    between atoms: _548  and  _549
REMARK  228  A    between atoms: _551  and  _553
REMARK  229  A    between atoms: _553  and  _554
REMARK  230  A    between atoms: _553  and  _556
REMARK  231  A    between atoms: _556  and  _557
REMARK  232  A    between atoms: _557  and  _558
REMARK  233  A    between atoms: _558  and  _559
REMARK                            x       y       z     vdW  Elec       q    Type
REMARK                         _______ _______ _______ _____ _____    ______ ____
ROOT
ATOM      1  CA  LEU A   1      56.594  10.662  19.192  0.00  0.00    +0.133 C 
ENDROOT
BRANCH   1   2
ATOM      2  N   LEU A   1      56.987  11.998  18.789  0.00  0.00    -0.239 NA
ATOM      3  H   LEU A   1      56.481  12.442  17.996  0.00  0.00    +0.142 HD
ENDBRANCH   1   2
BRANCH   1   4
ATOM      4  C   LEU A   1      57.421   9.593  18.438  0.00  0.00    +0.224 C 
ATOM      5  O   LEU A   1      57.625   9.666  17.213  0.00  0.00    -0.287 OA
ENDBRANCH   1   4
BRANCH   1   6
ATOM      6  CB  LEU A   1      55.093  10.422  18.983  0.00  0.00    +0.025 C 
BRANCH   6   7
ATOM      7  CG  LEU A   1      54.063  10.938  20.014  0.00  0.00    +0.002 C 
ATOM      8  CD2 LEU A   1      54.344  10.538  21.436  0.00  0.00    +0.000 C 
ATOM      9  CD1 LEU A   1      54.076  12.424  19.973  0.00  0.00    +0.000 C 
ENDBRANCH   6   7
ENDBRANCH   1   6
TORSDOF 4
REMARK  Name = ../refined-set-2016/1a94/1a94_pocket.pdb
REMARK  233 active torsions:
REMARK  status: ('A' for Active; 'I' for Inactive)
REMARK    1  A    between atoms: _1  and  _3
REMARK    2  A    between atoms: _3  and  _4
REMARK    3  A    between atoms: _3  and  _6
REMARK    4  A    between atoms: _6  and  _7
REMARK    5  A    between atoms: _7  and  _8
REMARK    6  A    between atoms: _8  and  _9
REMARK    7  A    between atoms: _18  and  _20
REMARK    8  A    between atoms: _20  and  _21
REMARK    9  A    between atoms: _20  and  _23
REMARK   10  A    between atoms: _23  and  _24
REMARK   11  A    between atoms: _27  and  _29
REMARK   12  A    between atoms: _29  and  _30
REMARK   13  A    between atoms: _29  and  _32
REMARK   14  A    between atoms: _32  and  _33
REMARK   15  A    between atoms: _36  and  _38
REMARK   16  A    between atoms: _38  and  _39
REMARK   17  A    between atoms: _38  and  _41
REMARK   18  A    between atoms: _41  and  _42
REMARK   19  A    between atoms: _45  and  _47
REMARK   20  A    between atoms: _47  and  _48
REMARK   21  A    between atoms: _47  and  _50
REMARK   22  A    between atoms: _50  and  _51
REMARK   23  A    between atoms: _54  and  _56
REMARK   24  A    between atoms: _56  and  _57
REMARK   25  A    between atoms: _59  and  _61
REMARK   26  A    between atoms: _61  and  _62
REMARK   27  A    between atoms: _65  and  _67
REMARK   28  A    between atoms: _67  and  _68
REMARK   29  A    between atoms: _67  and  _70
REMARK   30  A    between atoms: _70  and  _71
REMARK   31  A    between atoms: _74  and  _76
REMARK   32  A    between atoms: _76  and  _77
REMARK   33  A    between atoms: _76  and  _79
REMARK   34  A    between atoms: _79  and  _80
REMARK   35  A    between atoms: _83  and  _85
REMARK   36  A    between atoms: _85  and  _86
REMARK   37  A    between atoms: _85  and  _88
REMARK   38  A    between atoms: _88  and  _89
REMARK   39  A    between atoms: _92  and  _94
REMARK   40  A    between atoms: _94  and  _95
REMARK   41  A    between atoms: _94  and  _97
REMARK   42  A    between atoms: _100  and  _102
REMARK   43  A    between atoms: _102  and  _103
REMARK   44  A    between atoms: _102  and  _105
REMARK   45  A    between atoms: _105  and  _106
REMARK   46  A    between atoms: _106  and  _107
REMARK   47  A    between atoms: _107  and  _108
REMARK   48  A    between atoms: _108  and  _109
REMARK   49  A    between atoms: _113  and  _115
REMARK   50  A    between atoms: _115  and  _116
REMARK   51  A    between atoms: _115  and  _118
REMARK   52  A    between atoms: _118  and  _119
REMARK   53  A    between atoms: _119  and  _120
REMARK   54  A    between atoms: _122  and  _124
REMARK   55  A    between atoms: _124  and  _125
REMARK   56  A    between atoms: _124  and  _127
REMARK   57  A    between atoms: _127  and  _128
REMARK   58  A    between atoms: _131  and  _133
REMARK   59  A    between atoms: _133  and  _134
REMARK   60  A    between atoms: _136  and  _138
REMARK   61  A    between atoms: _138  and  _139
REMARK   62  A    between atoms: _141  and  _143
REMARK   63  A    between atoms: _143  and  _144
REMARK   64  A    between atoms: _143  and  _146
REMARK   65  A    between atoms: _146  and  _147
REMARK   66  A    between atoms: _150  and  _152
REMARK   67  A    between atoms: _152  and  _153
REMARK   68  A    between atoms: _155  and  _157
REMARK   69  A    between atoms: _157  and  _158
REMARK   70  A    between atoms: _160  and  _162
REMARK   71  A    between atoms: _162  and  _163
REMARK   72  A    between atoms: _162  and  _165
REMARK   73  A    between atoms: _165  and  _166
REMARK   74  A    between atoms: _172  and  _174
REMARK   75  A    between atoms: _174  and  _175
REMARK   76  A    between atoms: _174  and  _177
REMARK   77  A    between atoms: _177  and  _178
REMARK   78  A    between atoms: _181  and  _183
REMARK   79  A    between atoms: _183  and  _184
REMARK   80  A    between atoms: _183  and  _186
REMARK   81  A    between atoms: _189  and  _191
REMARK   82  A    between atoms: _191  and  _192
REMARK   83  A    between atoms: _191  and  _194
REMARK   84  A    between atoms: _194  and  _195
REMARK   85  A    between atoms: _195  and  _196
REMARK   86  A    between atoms: _201  and  _203
REMARK   87  A    between atoms: _203  and  _204
REMARK   88  A    between atoms: _203  and  _206
REMARK   89  A    between atoms: _206  and  _207
REMARK   90  A    between atoms: _210  and  _212
REMARK   91  A    between atoms: _212  and  _213
REMARK   92  A    between atoms: _212  and  _215
REMARK   93  A    between atoms: _215  and  _216
REMARK   94  A    between atoms: _219  and  _221
REMARK   95  A    between atoms: _221  and  _222
REMARK   96  A    between atoms: _221  and  _224
REMARK   97  A    between atoms: _224  and  _225
REMARK   98  A    between atoms: _229  and  _230
REMARK   99  A    between atoms: _235  and  _237
REMARK  100  A    between atoms: _237  and  _238
REMARK  101  A    between atoms: _237  and  _240
REMARK  102  A    between atoms: _243  and  _245
REMARK  103  A    between atoms: _245  and  _246
REMARK  104  A    between atoms: _245  and  _248
REMARK  105  A    between atoms: _248  and  _249
REMARK  106  A    between atoms: _254  and  _256
REMARK  107  A    between atoms: _256  and  _257
REMARK  108  A    between atoms: _256  and  _259
REMARK  109  A    between atoms: _259  and  _260
REMARK  110  A    between atoms: _263  and  _265
REMARK  111  A    between atoms: _265  and  _266
REMARK  112  A    between atoms: _265  and  _268
REMARK  113  A    between atoms: _268  and  _269
REMARK  114  A    between atoms: _272  and  _274
REMARK  115  A    between atoms: _274  and  _275
REMARK  116  A    between atoms: _277  and  _279
REMARK  117  A    between atoms: _279  and  _280
REMARK  118  A    between atoms: _279  and  _282
REMARK  119  A    between atoms: _282  and  _283
REMARK  120  A    between atoms: _283  and  _284
REMARK  121  A    between atoms: _284  and  _285
REMARK  122  A    between atoms: _294  and  _296
REMARK  123  A    between atoms: _296  and  _297
REMARK  124  A    between atoms: _296  and  _299
REMARK  125  A    between atoms: _299  and  _300
REMARK  126  A    between atoms: _305  and  _307
REMARK  127  A    between atoms: _307  and  _308
REMARK  128  A    between atoms: _307  and  _310
REMARK  129  A    between atoms: _310  and  _311
REMARK  130  A    between atoms: _311  and  _312
REMARK  131  A    between atoms: _312  and  _313
REMARK  132  A    between atoms: _322  and  _324
REMARK  133  A    between atoms: _324  and  _325
REMARK  134  A    between atoms: _324  and  _327
REMARK  135  A    between atoms: _327  and  _328
REMARK  136  A    between atoms: _331  and  _333
REMARK  137  A    between atoms: _333  and  _334
REMARK  138  A    between atoms: _333  and  _336
REMARK  139  A    between atoms: _336  and  _337
REMARK  140  A    between atoms: _340  and  _342
REMARK  141  A    between atoms: _342  and  _343
REMARK  142  A    between atoms: _342  and  _345
REMARK  143  A    between atoms: _345  and  _346
REMARK  144  A    between atoms: _349  and  _351
REMARK  145  A    between atoms: _351  and  _352
REMARK  146  A    between atoms: _354  and  _356
REMARK  147  A    between atoms: _356  and  _357
REMARK  148  A    between atoms: _360  and  _362
REMARK  149  A    between atoms: _362  and  _363
REMARK  150  A    between atoms: _362  and  _365
REMARK  151  A    between atoms: _365  and  _366
REMARK  152  A    between atoms: _369  and  _371
REMARK  153  A    between atoms: _371  and  _372
REMARK  154  A    between atoms: _371  and  _374
REMARK  155  A    between atoms: _374  and  _375
REMARK  156  A    between atoms: _378  and  _380
REMARK  157  A    between atoms: _380  and  _381
REMARK  158  A    between atoms: _380  and  _383
REMARK  159  A    between atoms: _383  and  _384
REMARK  160  A    between atoms: _387  and  _389
REMARK  161  A    between atoms: _389  and  _390
REMARK  162  A    between atoms: _389  and  _392
REMARK  163  A    between atoms: _395  and  _397
REMARK  164  A    between atoms: _397  and  _398
REMARK  165  A    between atoms: _397  and  _400
REMARK  166  A    between atoms: _400  and  _401
REMARK  167  A    between atoms: _401  and  _402
REMARK  168  A    between atoms: _402  and  _403
REMARK  169  A    between atoms: _403  and  _404
REMARK  170  A    between atoms: _408  and  _410
REMARK  171  A    between atoms: _410  and  _411
REMARK  172  A    between atoms: _410  and  _413
REMARK  173  A    between atoms: _413  and  _414
REMARK  174  A    between atoms: _414  and  _415
REMARK  175  A    between atoms: _417  and  _419
REMARK  176  A    between atoms: _419  and  _420
REMARK  177  A    between atoms: _419  and  _422
REMARK  178  A    between atoms: _422  and  _423
REMARK  179  A    between atoms: _426  and  _428
REMARK  180  A    between atoms: _428  and  _429
REMARK  181  A    between atoms: _431  and  _433
REMARK  182  A    between atoms: _433  and  _434
REMARK  183  A    between atoms: _436  and  _438
REMARK  184  A    between atoms: _438  and  _439
REMARK  185  A    between atoms: _438  and  _441
REMARK  186  A    between atoms: _441  and  _442
REMARK  187  A    between atoms: _445  and  _447
REMARK  188  A    between atoms: _447  and  _448
REMARK  189  A    between atoms: _450  and  _452
REMARK  190  A    between atoms: _452  and  _453
REMARK  191  A    between atoms: _455  and  _457
REMARK  192  A    between atoms: _457  and  _458
REMARK  193  A    between atoms: _457  and  _460
REMARK  194  A    between atoms: _460  and  _461
REMARK  195  A    between atoms: _467  and  _469
REMARK  196  A    between atoms: _469  and  _470
REMARK  197  A    between atoms: _469  and  _472
REMARK  198  A    between atoms: _472  and  _473
REMARK  199  A    between atoms: _476  and  _478
REMARK  200  A    between atoms: _478  and  _479
REMARK  201  A    between atoms: _478  and  _481
REMARK  202  A    between atoms: _484  and  _486
REMARK  203  A    between atoms: _486  and  _487
REMARK  204  A    between atoms: _486  and  _489
REMARK  205  A    between atoms: _489  and  _490
REMARK  206  A    between atoms: _493  and  _495
REMARK  207  A    between atoms: _495  and  _496
REMARK  208  A    between atoms: _495  and  _498
REMARK  209  A    between atoms: _498  and  _499
REMARK  210  A    between atoms: _503  and  _504
REMARK  211  A    between atoms: _509  and  _511
REMARK  212  A    between atoms: _511  and  _512
REMARK  213  A    between atoms: _511  and  _514
REMARK  214  A    between atoms: _517  and  _519
REMARK  215  A    between atoms: _519  and  _520
REMARK  216  A    between atoms: _519  and  _522
REMARK  217  A    between atoms: _522  and  _523
REMARK  218  A    between atoms: _528  and  _530
REMARK  219  A    between atoms: _530  and  _531
REMARK  220  A    between atoms: _530  and  _533
REMARK  221  A    between atoms: _533  and  _534
REMARK  222  A    between atoms: _537  and  _539
REMARK  223  A    between atoms: _539  and  _540
REMARK  224  A    between atoms: _539  and  _542
REMARK  225  A    between atoms: _542  and  _543
REMARK  226  A    between atoms: _546  and  _548
REMARK  227  A    between atoms: _548  and  _549
REMARK  228  A    between atoms: _551  and  _553
REMARK  229  A    between atoms: _553  and  _554
REMARK  230  A    between atoms: _553  and  _556
REMARK  231  A    between atoms: _556  and  _557
REMARK  232  A    between atoms: _557  and  _558
REMARK  233  A    between atoms: _558  and  _559
REMARK                            x       y       z     vdW  Elec       q    Type
REMARK                         _______ _______ _______ _____ _____    ______ ____
ROOT
ATOM      1  CA  LEU A   1      57.981  11.313  23.499  0.00  0.00    +0.133 C 
ENDROOT
BRANCH   1   2
ATOM      2  N   LEU A   1      57.572  10.003  23.939  0.00  0.00    -0.239 NA
ATOM      3  H   LEU A   1      57.329   9.867  24.941  0.00  0.00    +0.142 HD
ENDBRANCH   1   2
BRANCH   1   4
ATOM      4  C   LEU A   1      59.436  11.489  23.898  0.00  0.00    +0.224 C 
ATOM      5  O   LEU A   1      59.804  11.230  25.034  0.00  0.00    -0.287 OA
ENDBRANCH   1   4
BRANCH   1   6
ATOM      6  CB  LEU A   1      57.105  12.342  24.209  0.00  0.00    +0.025 C 
BRANCH   6   7
ATOM      7  CG  LEU A   1      57.185  13.850  23.935  0.00  0.00    +0.002 C 
ATOM      8  CD2 LEU A   1      56.490  14.584  25.048  0.00  0.00    +0.000 C 
ATOM      9  CD1 LEU A   1      56.429  14.155  22.667  0.00  0.00    +0.000 C 
ENDBRANCH   6   7
ENDBRANCH   1   6
TORSDOF 4
REMARK  Name = ../refined-set-2016/1a94/1a94_pocket.pdb
REMARK  233 active torsions:
REMARK  status: ('A' for Active; 'I' for Inactive)
REMARK    1  A    between atoms: _1  and  _3
REMARK    2  A    between atoms: _3  and  _4
REMARK    3  A    between atoms: _3  and  _6
REMARK    4  A    between atoms: _6  and  _7
REMARK    5  A    between atoms: _7  and  _8
REMARK    6  A    between atoms: _8  and  _9
REMARK    7  A    between atoms: _18  and  _20
REMARK    8  A    between atoms: _20  and  _21
REMARK    9  A    between atoms: _20  and  _23
REMARK   10  A    between atoms: _23  and  _24
REMARK   11  A    between atoms: _27  and  _29
REMARK   12  A    between atoms: _29  and  _30
REMARK   13  A    between atoms: _29  and  _32
REMARK   14  A    between atoms: _32  and  _33
REMARK   15  A    between atoms: _36  and  _38
REMARK   16  A    between atoms: _38  and  _39
REMARK   17  A    between atoms: _38  and  _41
REMARK   18  A    between atoms: _41  and  _42
REMARK   19  A    between atoms: _45  and  _47
REMARK   20  A    between atoms: _47  and  _48
REMARK   21  A    between atoms: _47  and  _50
REMARK   22  A    between atoms: _50  and  _51
REMARK   23  A    between atoms: _54  and  _56
REMARK   24  A    between atoms: _56  and  _57
REMARK   25  A    between atoms: _59  and  _61
REMARK   26  A    between atoms: _61  and  _62
REMARK   27  A    between atoms: _65  and  _67
REMARK   28  A    between atoms: _67  and  _68
REMARK   29  A    between atoms: _67  and  _70
REMARK   30  A    between atoms: _70  and  _71
REMARK   31  A    between atoms: _74  and  _76
REMARK   32  A    between atoms: _76  and  _77
REMARK   33  A    between atoms: _76  and  _79
REMARK   34  A    between atoms: _79  and  _80
REMARK   35  A    between atoms: _83  and  _85
REMARK   36  A    between atoms: _85  and  _86
REMARK   37  A    between atoms: _85  and  _88
REMARK   38  A    between atoms: _88  and  _89
REMARK   39  A    between atoms: _92  and  _94
REMARK   40  A    between atoms: _94  and  _95
REMARK   41  A    between atoms: _94  and  _97
REMARK   42  A    between atoms: _100  and  _102
REMARK   43  A    between atoms: _102  and  _103
REMARK   44  A    between atoms: _102  and  _105
REMARK   45  A    between atoms: _105  and  _106
REMARK   46  A    between atoms: _106  and  _107
REMARK   47  A    between atoms: _107  and  _108
REMARK   48  A    between atoms: _108  and  _109
REMARK   49  A    between atoms: _113  and  _115
REMARK   50  A    between atoms: _115  and  _116
REMARK   51  A    between atoms: _115  and  _118
REMARK   52  A    between atoms: _118  and  _119
REMARK   53  A    between atoms: _119  and  _120
REMARK   54  A    between atoms: _122  and  _124
REMARK   55  A    between atoms: _124  and  _125
REMARK   56  A    between atoms: _124  and  _127
REMARK   57  A    between atoms: _127  and  _128
REMARK   58  A    between atoms: _131  and  _133
REMARK   59  A    between atoms: _133  and  _134
REMARK   60  A    between atoms: _136  and  _138
REMARK   61  A    between atoms: _138  and  _139
REMARK   62  A    between atoms: _141  and  _143
REMARK   63  A    between atoms: _143  and  _144
REMARK   64  A    between atoms: _143  and  _146
REMARK   65  A    between atoms: _146  and  _147
REMARK   66  A    between atoms: _150  and  _152
REMARK   67  A    between atoms: _152  and  _153
REMARK   68  A    between atoms: _155  and  _157
REMARK   69  A    between atoms: _157  and  _158
REMARK   70  A    between atoms: _160  and  _162
REMARK   71  A    between atoms: _162  and  _163
REMARK   72  A    between atoms: _162  and  _165
REMARK   73  A    between atoms: _165  and  _166
REMARK   74  A    between atoms: _172  and  _174
REMARK   75  A    between atoms: _174  and  _175
REMARK   76  A    between atoms: _174  and  _177
REMARK   77  A    between atoms: _177  and  _178
REMARK   78  A    between atoms: _181  and  _183
REMARK   79  A    between atoms: _183  and  _184
REMARK   80  A    between atoms: _183  and  _186
REMARK   81  A    between atoms: _189  and  _191
REMARK   82  A    between atoms: _191  and  _192
REMARK   83  A    between atoms: _191  and  _194
REMARK   84  A    between atoms: _194  and  _195
REMARK   85  A    between atoms: _195  and  _196
REMARK   86  A    between atoms: _201  and  _203
REMARK   87  A    between atoms: _203  and  _204
REMARK   88  A    between atoms: _203  and  _206
REMARK   89  A    between atoms: _206  and  _207
REMARK   90  A    between atoms: _210  and  _212
REMARK   91  A    between atoms: _212  and  _213
REMARK   92  A    between atoms: _212  and  _215
REMARK   93  A    between atoms: _215  and  _216
REMARK   94  A    between atoms: _219  and  _221
REMARK   95  A    between atoms: _221  and  _222
REMARK   96  A    between atoms: _221  and  _224
REMARK   97  A    between atoms: _224  and  _225
REMARK   98  A    between atoms: _229  and  _230
REMARK   99  A    between atoms: _235  and  _237
REMARK  100  A    between atoms: _237  and  _238
REMARK  101  A    between atoms: _237  and  _240
REMARK  102  A    between atoms: _243  and  _245
REMARK  103  A    between atoms: _245  and  _246
REMARK  104  A    between atoms: _245  and  _248
REMARK  105  A    between atoms: _248  and  _249
REMARK  106  A    between atoms: _254  and  _256
REMARK  107  A    between atoms: _256  and  _257
REMARK  108  A    between atoms: _256  and  _259
REMARK  109  A    between atoms: _259  and  _260
REMARK  110  A    between atoms: _263  and  _265
REMARK  111  A    between atoms: _265  and  _266
REMARK  112  A    between atoms: _265  and  _268
REMARK  113  A    between atoms: _268  and  _269
REMARK  114  A    between atoms: _272  and  _274
REMARK  115  A    between atoms: _274  and  _275
REMARK  116  A    between atoms: _277  and  _279
REMARK  117  A    between atoms: _279  and  _280
REMARK  118  A    between atoms: _279  and  _282
REMARK  119  A    between atoms: _282  and  _283
REMARK  120  A    between atoms: _283  and  _284
REMARK  121  A    between atoms: _284  and  _285
REMARK  122  A    between atoms: _294  and  _296
REMARK  123  A    between atoms: _296  and  _297
REMARK  124  A    between atoms: _296  and  _299
REMARK  125  A    between atoms: _299  and  _300
REMARK  126  A    between atoms: _305  and  _307
REMARK  127  A    between atoms: _307  and  _308
REMARK  128  A    between atoms: _307  and  _310
REMARK  129  A    between atoms: _310  and  _311
REMARK  130  A    between atoms: _311  and  _312
REMARK  131  A    between atoms: _312  and  _313
REMARK  132  A    between atoms: _322  and  _324
REMARK  133  A    between atoms: _324  and  _325
REMARK  134  A    between atoms: _324  and  _327
REMARK  135  A    between atoms: _327  and  _328
REMARK  136  A    between atoms: _331  and  _333
REMARK  137  A    between atoms: _333  and  _334
REMARK  138  A    between atoms: _333  and  _336
REMARK  139  A    between atoms: _336  and  _337
REMARK  140  A    between atoms: _340  and  _342
REMARK  141  A    between atoms: _342  and  _343
REMARK  142  A    between atoms: _342  and  _345
REMARK  143  A    between atoms: _345  and  _346
REMARK  144  A    between atoms: _349  and  _351
REMARK  145  A    between atoms: _351  and  _352
REMARK  146  A    between atoms: _354  and  _356
REMARK  147  A    between atoms: _356  and  _357
REMARK  148  A    between atoms: _360  and  _362
REMARK  149  A    between atoms: _362  and  _363
REMARK  150  A    between atoms: _362  and  _365
REMARK  151  A    between atoms: _365  and  _366
REMARK  152  A    between atoms: _369  and  _371
REMARK  153  A    between atoms: _371  and  _372
REMARK  154  A    between atoms: _371  and  _374
REMARK  155  A    between atoms: _374  and  _375
REMARK  156  A    between atoms: _378  and  _380
REMARK  157  A    between atoms: _380  and  _381
REMARK  158  A    between atoms: _380  and  _383
REMARK  159  A    between atoms: _383  and  _384
REMARK  160  A    between atoms: _387  and  _389
REMARK  161  A    between atoms: _389  and  _390
REMARK  162  A    between atoms: _389  and  _392
REMARK  163  A    between atoms: _395  and  _397
REMARK  164  A    between atoms: _397  and  _398
REMARK  165  A    between atoms: _397  and  _400
REMARK  166  A    between atoms: _400  and  _401
REMARK  167  A    between atoms: _401  and  _402
REMARK  168  A    between atoms: _402  and  _403
REMARK  169  A    between atoms: _403  and  _404
REMARK  170  A    between atoms: _408  and  _410
REMARK  171  A    between atoms: _410  and  _411
REMARK  172  A    between atoms: _410  and  _413
REMARK  173  A    between atoms: _413  and  _414
REMARK  174  A    between atoms: _414  and  _415
REMARK  175  A    between atoms: _417  and  _419
REMARK  176  A    between atoms: _419  and  _420
REMARK  177  A    between atoms: _419  and  _422
REMARK  178  A    between atoms: _422  and  _423
REMARK  179  A    between atoms: _426  and  _428
REMARK  180  A    between atoms: _428  and  _429
REMARK  181  A    between atoms: _431  and  _433
REMARK  182  A    between atoms: _433  and  _434
REMARK  183  A    between atoms: _436  and  _438
REMARK  184  A    between atoms: _438  and  _439
REMARK  185  A    between atoms: _438  and  _441
REMARK  186  A    between atoms: _441  and  _442
REMARK  187  A    between atoms: _445  and  _447
REMARK  188  A    between atoms: _447  and  _448
REMARK  189  A    between atoms: _450  and  _452
REMARK  190  A    between atoms: _452  and  _453
REMARK  191  A    between atoms: _455  and  _457
REMARK  192  A    between atoms: _457  and  _458
REMARK  193  A    between atoms: _457  and  _460
REMARK  194  A    between atoms: _460  and  _461
REMARK  195  A    between atoms: _467  and  _469
REMARK  196  A    between atoms: _469  and  _470
REMARK  197  A    between atoms: _469  and  _472
REMARK  198  A    between atoms: _472  and  _473
REMARK  199  A    between atoms: _476  and  _478
REMARK  200  A    between atoms: _478  and  _479
REMARK  201  A    between atoms: _478  and  _481
REMARK  202  A    between atoms: _484  and  _486
REMARK  203  A    between atoms: _486  and  _487
REMARK  204  A    between atoms: _486  and  _489
REMARK  205  A    between atoms: _489  and  _490
REMARK  206  A    between atoms: _493  and  _495
REMARK  207  A    between atoms: _495  and  _496
REMARK  208  A    between atoms: _495  and  _498
REMARK  209  A    between atoms: _498  and  _499
REMARK  210  A    between atoms: _503  and  _504
REMARK  211  A    between atoms: _509  and  _511
REMARK  212  A    between atoms: _511  and  _512
REMARK  213  A    between atoms: _511  and  _514
REMARK  214  A    between atoms: _517  and  _519
REMARK  215  A    between atoms: _519  and  _520
REMARK  216  A    between atoms: _519  and  _522
REMARK  217  A    between atoms: _522  and  _523
REMARK  218  A    between atoms: _528  and  _530
REMARK  219  A    between atoms: _530  and  _531
REMARK  220  A    between atoms: _530  and  _533
REMARK  221  A    between atoms: _533  and  _534
REMARK  222  A    between atoms: _537  and  _539
REMARK  223  A    between atoms: _539  and  _540
REMARK  224  A    between atoms: _539  and  _542
REMARK  225  A    between atoms: _542  and  _543
REMARK  226  A    between atoms: _546  and  _548
REMARK  227  A    between atoms: _548  and  _549
REMARK  228  A    between atoms: _551  and  _553
REMARK  229  A    between atoms: _553  and  _554
REMARK  230  A    between atoms: _553  and  _556
REMARK  231  A    between atoms: _556  and  _557
REMARK  232  A    between atoms: _557  and  _558
REMARK  233  A    between atoms: _558  and  _559
REMARK                            x       y       z     vdW  Elec       q    Type
REMARK                         _______ _______ _______ _____ _____    ______ ____
ROOT
ATOM      1  CA  ASP A   5      66.671  13.915  33.035  0.00  0.00    +0.160 C 
ENDROOT
BRANCH   1   2
ATOM      2  C   ASP A   5      66.582  12.391  32.882  0.00  0.00    +0.241 C 
ATOM      3  N   ASP A   6      65.408  11.870  33.218  0.00  0.00    -0.297 N 
ATOM      4  H   ASP A   6      64.645  12.522  33.491  0.00  0.00    +0.150 HD
ATOM      5  O   ASP A   5      67.500  11.746  32.375  0.00  0.00    -0.273 OA
BRANCH   3   6
ATOM      6  CA  ASP A   6      65.125  10.453  33.228  0.00  0.00    +0.160 C 
BRANCH   6   7
ATOM      7  C   ASP A   6      63.991  10.042  32.336  0.00  0.00    +0.241 C 
ATOM      8  N   THR A   7      63.747   8.738  32.339  0.00  0.00    -0.295 N 
ATOM      9  H   THR A   7      64.306   8.144  32.985  0.00  0.00    +0.150 HD
ATOM     10  O   ASP A   6      63.319  10.880  31.744  0.00  0.00    -0.273 OA
BRANCH   8  11
ATOM     11  CA  THR A   7      62.766   8.087  31.514  0.00  0.00    +0.176 C 
BRANCH  11  12
ATOM     12  C   THR A   7      61.636   7.464  32.337  0.00  0.00    +0.243 C 
ATOM     13  O   THR A   7      61.832   6.517  33.100  0.00  0.00    -0.273 OA
ATOM     14  N   VAL A   8      60.438   7.981  32.144  0.00  0.00    -0.298 N 
ATOM     15  H   VAL A   8      60.328   8.746  31.448  0.00  0.00    +0.150 HD
BRANCH  14  16
ATOM     16  CA  VAL A   8      59.273   7.523  32.865  0.00  0.00    +0.137 C 
BRANCH  16  17
ATOM     17  CB  VAL A   8      58.736   8.613  33.859  0.00  0.00    +0.026 C 
ATOM     18  CG2 VAL A   8      57.513   8.140  34.584  0.00  0.00    +0.002 C 
ATOM     19  CG1 VAL A   8      58.472   9.943  33.137  0.00  0.00    +0.002 C 
ENDBRANCH  16  17
BRANCH  16  20
ATOM     20  C   VAL A   8      58.221   6.985  31.903  0.00  0.00    +0.227 C 
ATOM     21  O   VAL A   8      57.901   7.560  30.878  0.00  0.00    -0.286 OA
ENDBRANCH  16  20
ENDBRANCH  14  16
ENDBRANCH  11  12
BRANCH  11  22
ATOM     22  CB  THR A   7      63.511   7.012  30.689  0.00  0.00    +0.137 C 
ATOM     23  CG2 THR A   7      62.545   6.108  29.980  0.00  0.00    +0.034 C 
BRANCH  22  24
ATOM     24  OG1 THR A   7      64.413   7.649  29.758  0.00  0.00    -0.382 OA
ATOM     25  HG1 THR A   7      65.071   8.193  30.258  0.00  0.00    +0.210 HD
ENDBRANCH  22  24
ENDBRANCH  11  22
ENDBRANCH   8  11
ENDBRANCH   6   7
BRANCH   6  26
ATOM     26  CB  ASP A   6      64.783  10.019  34.642  0.00  0.00    +0.143 C 
BRANCH  26  27
ATOM     27  CG  ASP A   6      65.739  10.573  35.652  0.00  0.00    +0.367 C 
ATOM     28  OD2 ASP A   6      65.305  11.392  36.512  0.00  0.00    -0.246 OA
ATOM     29  OD1 ASP A   6      66.938  10.222  35.529  0.00  0.00    -0.246 OA
ENDBRANCH  26  27
ENDBRANCH   6  26
ENDBRANCH   3   6
ENDBRANCH   1   2
BRANCH   1  31
ATOM     30  C   ALA A   4      64.962  14.631  31.423  0.00  0.00    +0.241 C 
ATOM     31  N   ASP A   5      65.355  14.512  32.697  0.00  0.00    -0.297 N 
ATOM     32  H   ASP A   5      64.730  14.842  33.460  0.00  0.00    +0.150 HD
ATOM     33  O   ALA A   4      65.667  14.316  30.463  0.00  0.00    -0.273 OA
BRANCH  30  34
ATOM     34  CA  ALA A   4      63.591  15.211  31.155  0.00  0.00    +0.149 C 
ATOM     35  CB  ALA A   4      62.645  14.108  30.661  0.00  0.00    +0.031 C 
BRANCH  34  38
ATOM     36  C   GLY A   3      63.634  17.498  30.466  0.00  0.00    +0.243 C 
ATOM     37  O   GLY A   3      63.331  17.835  31.621  0.00  0.00    -0.273 OA
ATOM     38  N   ALA A   4      63.742  16.221  30.135  0.00  0.00    -0.297 N 
ATOM     39  H   ALA A   4      63.934  15.948  29.150  0.00  0.00    +0.150 HD
BRANCH  36  40
ATOM     40  CA  GLY A   3      63.807  18.525  29.330  0.00  0.00    +0.176 C 
BRANCH  40  43
ATOM     41  C   THR A   2      65.109  17.578  27.503  0.00  0.00    +0.243 C 
ATOM     42  O   THR A   2      66.138  17.899  28.039  0.00  0.00    -0.273 OA
ATOM     43  N   GLY A   3      63.921  17.850  28.037  0.00  0.00    -0.295 N 
ATOM     44  H   GLY A   3      63.057  17.578  27.526  0.00  0.00    +0.150 HD
BRANCH  41  45
ATOM     45  CA  THR A   2      65.159  16.818  26.186  0.00  0.00    +0.176 C 
BRANCH  45  48
ATOM     46  C   ASP A   1      63.380  15.236  26.281  0.00  0.00    +0.239 C 
ATOM     47  O   ASP A   1      63.928  14.630  27.200  0.00  0.00    -0.274 OA
ATOM     48  N   THR A   2      63.896  16.329  25.734  0.00  0.00    -0.295 N 
ATOM     49  H   THR A   2      63.383  16.827  24.979  0.00  0.00    +0.150 HD
BRANCH  46  50
ATOM     50  CA  ASP A   1      62.023  14.792  25.750  0.00  0.00    +0.156 C 
BRANCH  50  51
ATOM     51  N   ASP A   1      62.113  13.557  25.037  0.00  0.00    -0.238 NA
ATOM     52  H   ASP A   1      62.510  12.714  25.498  0.00  0.00    +0.142 HD
ENDBRANCH  50  51
BRANCH  50  53
ATOM     53  CB  ASP A   1      60.988  14.579  26.878  0.00  0.00    +0.140 C 
BRANCH  53  54
ATOM     54  CG  ASP A   1      60.832  15.775  27.776  0.00  0.00    +0.367 C 
ATOM     55  OD2 ASP A   1      60.316  15.634  28.892  0.00  0.00    -0.246 OA
ATOM     56  OD1 ASP A   1      61.229  16.872  27.390  0.00  0.00    -0.246 OA
ENDBRANCH  53  54
ENDBRANCH  50  53
ENDBRANCH  46  50
ENDBRANCH  45  48
BRANCH  45  57
ATOM     57  CB  THR A   2      65.839  17.619  25.110  0.00  0.00    +0.137 C 
ATOM     58  CG2 THR A   2      65.933  16.751  23.785  0.00  0.00    +0.034 C 
BRANCH  57  59
ATOM     59  OG1 THR A   2      65.104  18.828  24.890  0.00  0.00    -0.382 OA
ATOM     60  HG1 THR A   2      65.076  19.353  25.729  0.00  0.00    +0.210 HD
ENDBRANCH  57  59
ENDBRANCH  45  57
ENDBRANCH  41  45
ENDBRANCH  40  43
ENDBRANCH  36  40
ENDBRANCH  34  38
ENDBRANCH  30  34
ENDBRANCH   1  31
BRANCH   1  61
ATOM     61  CB  ASP A   5      67.037  14.159  34.501  0.00  0.00    +0.143 C 
BRANCH  61  62
ATOM     62  CG  ASP A   5      67.149  15.608  34.850  0.00  0.00    +0.367 C 
ATOM     63  OD2 ASP A   5      66.877  15.911  36.007  0.00  0.00    -0.246 OA
ATOM     64  OD1 ASP A   5      67.538  16.432  33.998  0.00  0.00    -0.246 OA
ENDBRANCH  61  62
ENDBRANCH   1  61
TORSDOF 27
REMARK  Name = ../refined-set-2016/1a94/1a94_pocket.pdb
REMARK  233 active torsions:
REMARK  status: ('A' for Active; 'I' for Inactive)
REMARK    1  A    between atoms: _1  and  _3
REMARK    2  A    between atoms: _3  and  _4
REMARK    3  A    between atoms: _3  and  _6
REMARK    4  A    between atoms: _6  and  _7
REMARK    5  A    between atoms: _7  and  _8
REMARK    6  A    between atoms: _8  and  _9
REMARK    7  A    between atoms: _18  and  _20
REMARK    8  A    between atoms: _20  and  _21
REMARK    9  A    between atoms: _20  and  _23
REMARK   10  A    between atoms: _23  and  _24
REMARK   11  A    between atoms: _27  and  _29
REMARK   12  A    between atoms: _29  and  _30
REMARK   13  A    between atoms: _29  and  _32
REMARK   14  A    between atoms: _32  and  _33
REMARK   15  A    between atoms: _36  and  _38
REMARK   16  A    between atoms: _38  and  _39
REMARK   17  A    between atoms: _38  and  _41
REMARK   18  A    between atoms: _41  and  _42
REMARK   19  A    between atoms: _45  and  _47
REMARK   20  A    between atoms: _47  and  _48
REMARK   21  A    between atoms: _47  and  _50
REMARK   22  A    between atoms: _50  and  _51
REMARK   23  A    between atoms: _54  and  _56
REMARK   24  A    between atoms: _56  and  _57
REMARK   25  A    between atoms: _59  and  _61
REMARK   26  A    between atoms: _61  and  _62
REMARK   27  A    between atoms: _65  and  _67
REMARK   28  A    between atoms: _67  and  _68
REMARK   29  A    between atoms: _67  and  _70
REMARK   30  A    between atoms: _70  and  _71
REMARK   31  A    between atoms: _74  and  _76
REMARK   32  A    between atoms: _76  and  _77
REMARK   33  A    between atoms: _76  and  _79
REMARK   34  A    between atoms: _79  and  _80
REMARK   35  A    between atoms: _83  and  _85
REMARK   36  A    between atoms: _85  and  _86
REMARK   37  A    between atoms: _85  and  _88
REMARK   38  A    between atoms: _88  and  _89
REMARK   39  A    between atoms: _92  and  _94
REMARK   40  A    between atoms: _94  and  _95
REMARK   41  A    between atoms: _94  and  _97
REMARK   42  A    between atoms: _100  and  _102
REMARK   43  A    between atoms: _102  and  _103
REMARK   44  A    between atoms: _102  and  _105
REMARK   45  A    between atoms: _105  and  _106
REMARK   46  A    between atoms: _106  and  _107
REMARK   47  A    between atoms: _107  and  _108
REMARK   48  A    between atoms: _108  and  _109
REMARK   49  A    between atoms: _113  and  _115
REMARK   50  A    between atoms: _115  and  _116
REMARK   51  A    between atoms: _115  and  _118
REMARK   52  A    between atoms: _118  and  _119
REMARK   53  A    between atoms: _119  and  _120
REMARK   54  A    between atoms: _122  and  _124
REMARK   55  A    between atoms: _124  and  _125
REMARK   56  A    between atoms: _124  and  _127
REMARK   57  A    between atoms: _127  and  _128
REMARK   58  A    between atoms: _131  and  _133
REMARK   59  A    between atoms: _133  and  _134
REMARK   60  A    between atoms: _136  and  _138
REMARK   61  A    between atoms: _138  and  _139
REMARK   62  A    between atoms: _141  and  _143
REMARK   63  A    between atoms: _143  and  _144
REMARK   64  A    between atoms: _143  and  _146
REMARK   65  A    between atoms: _146  and  _147
REMARK   66  A    between atoms: _150  and  _152
REMARK   67  A    between atoms: _152  and  _153
REMARK   68  A    between atoms: _155  and  _157
REMARK   69  A    between atoms: _157  and  _158
REMARK   70  A    between atoms: _160  and  _162
REMARK   71  A    between atoms: _162  and  _163
REMARK   72  A    between atoms: _162  and  _165
REMARK   73  A    between atoms: _165  and  _166
REMARK   74  A    between atoms: _172  and  _174
REMARK   75  A    between atoms: _174  and  _175
REMARK   76  A    between atoms: _174  and  _177
REMARK   77  A    between atoms: _177  and  _178
REMARK   78  A    between atoms: _181  and  _183
REMARK   79  A    between atoms: _183  and  _184
REMARK   80  A    between atoms: _183  and  _186
REMARK   81  A    between atoms: _189  and  _191
REMARK   82  A    between atoms: _191  and  _192
REMARK   83  A    between atoms: _191  and  _194
REMARK   84  A    between atoms: _194  and  _195
REMARK   85  A    between atoms: _195  and  _196
REMARK   86  A    between atoms: _201  and  _203
REMARK   87  A    between atoms: _203  and  _204
REMARK   88  A    between atoms: _203  and  _206
REMARK   89  A    between atoms: _206  and  _207
REMARK   90  A    between atoms: _210  and  _212
REMARK   91  A    between atoms: _212  and  _213
REMARK   92  A    between atoms: _212  and  _215
REMARK   93  A    between atoms: _215  and  _216
REMARK   94  A    between atoms: _219  and  _221
REMARK   95  A    between atoms: _221  and  _222
REMARK   96  A    between atoms: _221  and  _224
REMARK   97  A    between atoms: _224  and  _225
REMARK   98  A    between atoms: _229  and  _230
REMARK   99  A    between atoms: _235  and  _237
REMARK  100  A    between atoms: _237  and  _238
REMARK  101  A    between atoms: _237  and  _240
REMARK  102  A    between atoms: _243  and  _245
REMARK  103  A    between atoms: _245  and  _246
REMARK  104  A    between atoms: _245  and  _248
REMARK  105  A    between atoms: _248  and  _249
REMARK  106  A    between atoms: _254  and  _256
REMARK  107  A    between atoms: _256  and  _257
REMARK  108  A    between atoms: _256  and  _259
REMARK  109  A    between atoms: _259  and  _260
REMARK  110  A    between atoms: _263  and  _265
REMARK  111  A    between atoms: _265  and  _266
REMARK  112  A    between atoms: _265  and  _268
REMARK  113  A    between atoms: _268  and  _269
REMARK  114  A    between atoms: _272  and  _274
REMARK  115  A    between atoms: _274  and  _275
REMARK  116  A    between atoms: _277  and  _279
REMARK  117  A    between atoms: _279  and  _280
REMARK  118  A    between atoms: _279  and  _282
REMARK  119  A    between atoms: _282  and  _283
REMARK  120  A    between atoms: _283  and  _284
REMARK  121  A    between atoms: _284  and  _285
REMARK  122  A    between atoms: _294  and  _296
REMARK  123  A    between atoms: _296  and  _297
REMARK  124  A    between atoms: _296  and  _299
REMARK  125  A    between atoms: _299  and  _300
REMARK  126  A    between atoms: _305  and  _307
REMARK  127  A    between atoms: _307  and  _308
REMARK  128  A    between atoms: _307  and  _310
REMARK  129  A    between atoms: _310  and  _311
REMARK  130  A    between atoms: _311  and  _312
REMARK  131  A    between atoms: _312  and  _313
REMARK  132  A    between atoms: _322  and  _324
REMARK  133  A    between atoms: _324  and  _325
REMARK  134  A    between atoms: _324  and  _327
REMARK  135  A    between atoms: _327  and  _328
REMARK  136  A    between atoms: _331  and  _333
REMARK  137  A    between atoms: _333  and  _334
REMARK  138  A    between atoms: _333  and  _336
REMARK  139  A    between atoms: _336  and  _337
REMARK  140  A    between atoms: _340  and  _342
REMARK  141  A    between atoms: _342  and  _343
REMARK  142  A    between atoms: _342  and  _345
REMARK  143  A    between atoms: _345  and  _346
REMARK  144  A    between atoms: _349  and  _351
REMARK  145  A    between atoms: _351  and  _352
REMARK  146  A    between atoms: _354  and  _356
REMARK  147  A    between atoms: _356  and  _357
REMARK  148  A    between atoms: _360  and  _362
REMARK  149  A    between atoms: _362  and  _363
REMARK  150  A    between atoms: _362  and  _365
REMARK  151  A    between atoms: _365  and  _366
REMARK  152  A    between atoms: _369  and  _371
REMARK  153  A    between atoms: _371  and  _372
REMARK  154  A    between atoms: _371  and  _374
REMARK  155  A    between atoms: _374  and  _375
REMARK  156  A    between atoms: _378  and  _380
REMARK  157  A    between atoms: _380  and  _381
REMARK  158  A    between atoms: _380  and  _383
REMARK  159  A    between atoms: _383  and  _384
REMARK  160  A    between atoms: _387  and  _389
REMARK  161  A    between atoms: _389  and  _390
REMARK  162  A    between atoms: _389  and  _392
REMARK  163  A    between atoms: _395  and  _397
REMARK  164  A    between atoms: _397  and  _398
REMARK  165  A    between atoms: _397  and  _400
REMARK  166  A    between atoms: _400  and  _401
REMARK  167  A    between atoms: _401  and  _402
REMARK  168  A    between atoms: _402  and  _403
REMARK  169  A    between atoms: _403  and  _404
REMARK  170  A    between atoms: _408  and  _410
REMARK  171  A    between atoms: _410  and  _411
REMARK  172  A    between atoms: _410  and  _413
REMARK  173  A    between atoms: _413  and  _414
REMARK  174  A    between atoms: _414  and  _415
REMARK  175  A    between atoms: _417  and  _419
REMARK  176  A    between atoms: _419  and  _420
REMARK  177  A    between atoms: _419  and  _422
REMARK  178  A    between atoms: _422  and  _423
REMARK  179  A    between atoms: _426  and  _428
REMARK  180  A    between atoms: _428  and  _429
REMARK  181  A    between atoms: _431  and  _433
REMARK  182  A    between atoms: _433  and  _434
REMARK  183  A    between atoms: _436  and  _438
REMARK  184  A    between atoms: _438  and  _439
REMARK  185  A    between atoms: _438  and  _441
REMARK  186  A    between atoms: _441  and  _442
REMARK  187  A    between atoms: _445  and  _447
REMARK  188  A    between atoms: _447  and  _448
REMARK  189  A    between atoms: _450  and  _452
REMARK  190  A    between atoms: _452  and  _453
REMARK  191  A    between atoms: _455  and  _457
REMARK  192  A    between atoms: _457  and  _458
REMARK  193  A    between atoms: _457  and  _460
REMARK  194  A    between atoms: _460  and  _461
REMARK  195  A    between atoms: _467  and  _469
REMARK  196  A    between atoms: _469  and  _470
REMARK  197  A    between atoms: _469  and  _472
REMARK  198  A    between atoms: _472  and  _473
REMARK  199  A    between atoms: _476  and  _478
REMARK  200  A    between atoms: _478  and  _479
REMARK  201  A    between atoms: _478  and  _481
REMARK  202  A    between atoms: _484  and  _486
REMARK  203  A    between atoms: _486  and  _487
REMARK  204  A    between atoms: _486  and  _489
REMARK  205  A    between atoms: _489  and  _490
REMARK  206  A    between atoms: _493  and  _495
REMARK  207  A    between atoms: _495  and  _496
REMARK  208  A    between atoms: _495  and  _498
REMARK  209  A    between atoms: _498  and  _499
REMARK  210  A    between atoms: _503  and  _504
REMARK  211  A    between atoms: _509  and  _511
REMARK  212  A    between atoms: _511  and  _512
REMARK  213  A    between atoms: _511  and  _514
REMARK  214  A    between atoms: _517  and  _519
REMARK  215  A    between atoms: _519  and  _520
REMARK  216  A    between atoms: _519  and  _522
REMARK  217  A    between atoms: _522  and  _523
REMARK  218  A    between atoms: _528  and  _530
REMARK  219  A    between atoms: _530  and  _531
REMARK  220  A    between atoms: _530  and  _533
REMARK  221  A    between atoms: _533  and  _534
REMARK  222  A    between atoms: _537  and  _539
REMARK  223  A    between atoms: _539  and  _540
REMARK  224  A    between atoms: _539  and  _542
REMARK  225  A    between atoms: _542  and  _543
REMARK  226  A    between atoms: _546  and  _548
REMARK  227  A    between atoms: _548  and  _549
REMARK  228  A    between atoms: _551  and  _553
REMARK  229  A    between atoms: _553  and  _554
REMARK  230  A    between atoms: _553  and  _556
REMARK  231  A    between atoms: _556  and  _557
REMARK  232  A    between atoms: _557  and  _558
REMARK  233  A    between atoms: _558  and  _559
REMARK                            x       y       z     vdW  Elec       q    Type
REMARK                         _______ _______ _______ _____ _____    ______ ____
ROOT
ATOM      1  C   GLY A   5      57.158  19.185  37.334  0.00  0.00    +0.243 C 
ATOM      2  O   GLY A   5      56.932  19.647  38.457  0.00  0.00    -0.273 OA
ATOM      3  N   ILE A   6      56.672  19.715  36.226  0.00  0.00    -0.297 N 
ATOM      4  H   ILE A   6      56.872  19.277  35.304  0.00  0.00    +0.150 HD
ENDROOT
BRANCH   3   5
ATOM      5  CA  ILE A   6      55.866  20.899  36.303  0.00  0.00    +0.149 C 
BRANCH   5   6
ATOM      6  C   ILE A   6      54.789  20.868  37.388  0.00  0.00    +0.241 C 
ATOM      7  O   ILE A   6      54.869  21.648  38.321  0.00  0.00    -0.273 OA
ATOM      8  N   GLY A   7      53.862  19.934  37.381  0.00  0.00    -0.295 N 
ATOM      9  H   GLY A   7      53.851  19.170  36.675  0.00  0.00    +0.150 HD
BRANCH   8  10
ATOM     10  CA  GLY A   7      52.859  20.039  38.419  0.00  0.00    +0.176 C 
BRANCH  10  11
ATOM     11  C   GLY A   7      53.288  19.689  39.827  0.00  0.00    +0.243 C 
ATOM     12  O   GLY A   7      52.584  19.997  40.780  0.00  0.00    -0.273 OA
ATOM     13  N   GLY A   8      54.402  18.979  39.965  0.00  0.00    -0.295 N 
ATOM     14  H   GLY A   8      54.952  18.716  39.122  0.00  0.00    +0.150 HD
BRANCH  13  15
ATOM     15  CA  GLY A   8      54.861  18.566  41.280  0.00  0.00    +0.176 C 
BRANCH  15  16
ATOM     16  C   GLY A   8      55.534  17.191  41.280  0.00  0.00    +0.243 C 
ATOM     17  N   PHE A   9      55.423  16.476  42.398  0.00  0.00    -0.297 N 
ATOM     18  H   PHE A   9      54.870  16.877  43.182  0.00  0.00    +0.150 HD
ATOM     19  O   GLY A   8      56.077  16.773  40.274  0.00  0.00    -0.273 OA
BRANCH  17  20
ATOM     20  CA  PHE A   9      56.035  15.154  42.590  0.00  0.00    +0.153 C 
BRANCH  20  21
ATOM     21  C   PHE A   9      55.155  13.914  42.460  0.00  0.00    +0.241 C 
ATOM     22  O   PHE A   9      54.047  13.876  42.969  0.00  0.00    -0.273 OA
ATOM     23  N   ILE A  10      55.674  12.869  41.835  0.00  0.00    -0.298 N 
ATOM     24  H   ILE A  10      56.626  12.940  41.423  0.00  0.00    +0.150 HD
BRANCH  23  25
ATOM     25  CA  ILE A  10      54.925  11.610  41.714  0.00  0.00    +0.137 C 
BRANCH  25  26
ATOM     26  C   ILE A  10      55.794  10.437  42.180  0.00  0.00    +0.227 C 
ATOM     27  O   ILE A  10      57.012  10.499  42.100  0.00  0.00    -0.286 OA
ENDBRANCH  25  26
BRANCH  25  28
ATOM     28  CB  ILE A  10      54.422  11.338  40.264  0.00  0.00    +0.026 C 
ATOM     29  CG2 ILE A  10      53.657  12.586  39.712  0.00  0.00    +0.002 C 
BRANCH  28  30
ATOM     30  CG1 ILE A  10      55.587  10.989  39.335  0.00  0.00    +0.002 C 
ATOM     31  CD1 ILE A  10      55.127  10.447  38.029  0.00  0.00    +0.000 C 
ENDBRANCH  28  30
ENDBRANCH  25  28
ENDBRANCH  23  25
ENDBRANCH  20  21
BRANCH  20  32
ATOM     32  CB  PHE A   9      56.703  15.114  43.973  0.00  0.00    +0.055 C 
BRANCH  32  33
ATOM     33  CG  PHE A   9      57.987  15.900  44.049  0.00  0.00    -0.020 A 
ATOM     34  CD2 PHE A   9      57.971  17.253  44.342  0.00  0.00    -0.004 A 
ATOM     35  CE2 PHE A   9      59.170  17.986  44.373  0.00  0.00    -0.000 A 
ATOM     36  CZ  PHE A   9      60.387  17.355  44.109  0.00  0.00    -0.000 A 
ATOM     37  CE1 PHE A   9      60.407  15.996  43.819  0.00  0.00    -0.000 A 
ATOM     38  CD1 PHE A   9      59.218  15.280  43.793  0.00  0.00    -0.004 A 
ENDBRANCH  32  33
ENDBRANCH  20  32
ENDBRANCH  17  20
ENDBRANCH  15  16
ENDBRANCH  13  15
ENDBRANCH  10  11
ENDBRANCH   8  10
ENDBRANCH   5   6
BRANCH   5  39
ATOM     39  CB  ILE A   6      55.311  21.342  34.914  0.00  0.00    +0.027 C 
ATOM     40  CG2 ILE A   6      53.797  21.352  34.878  0.00  0.00    +0.002 C 
BRANCH  39  41
ATOM     41  CG1 ILE A   6      55.755  22.777  34.614  0.00  0.00    +0.002 C 
ATOM     42  CD1 ILE A   6      57.260  23.003  34.584  0.00  0.00    +0.000 C 
ENDBRANCH  39  41
ENDBRANCH   5  39
ENDBRANCH   3   5
BRANCH   1  43
ATOM     43  CA  GLY A   5      57.995  17.950  37.169  0.00  0.00    +0.176 C 
BRANCH  43  45
ATOM     44  C   GLY A   4      59.054  16.514  38.761  0.00  0.00    +0.243 C 
ATOM     45  N   GLY A   5      58.038  17.294  38.454  0.00  0.00    -0.295 N 
ATOM     46  H   GLY A   5      57.267  17.437  39.137  0.00  0.00    +0.150 HD
ATOM     47  O   GLY A   4      59.978  16.301  37.990  0.00  0.00    -0.273 OA
BRANCH  44  48
ATOM     48  CA  GLY A   4      59.030  15.874  40.121  0.00  0.00    +0.176 C 
BRANCH  48  51
ATOM     49  C   ILE A   3      59.488  13.597  40.704  0.00  0.00    +0.241 C 
ATOM     50  O   ILE A   3      58.337  13.444  41.081  0.00  0.00    -0.273 OA
ATOM     51  N   GLY A   4      59.934  14.746  40.230  0.00  0.00    -0.295 N 
ATOM     52  H   GLY A   4      60.927  14.841  39.937  0.00  0.00    +0.150 HD
BRANCH  49  53
ATOM     53  CA  ILE A   3      60.484  12.459  40.800  0.00  0.00    +0.149 C 
BRANCH  53  56
ATOM     54  C   MET A   2      60.655  10.973  42.735  0.00  0.00    +0.241 C 
ATOM     55  O   MET A   2      61.862  11.150  42.814  0.00  0.00    -0.273 OA
ATOM     56  N   ILE A   3      59.915  11.516  41.770  0.00  0.00    -0.297 N 
ATOM     57  H   ILE A   3      58.908  11.265  41.702  0.00  0.00    +0.150 HD
BRANCH  54  58
ATOM     58  CA  MET A   2      59.952  10.035  43.726  0.00  0.00    +0.149 C 
BRANCH  58  60
ATOM     59  C   LYS A   1      60.379   7.619  43.871  0.00  0.00    +0.238 C 
ATOM     60  N   MET A   2      60.806   8.875  43.947  0.00  0.00    -0.297 N 
ATOM     61  H   MET A   2      61.807   9.040  44.177  0.00  0.00    +0.150 HD
ATOM     62  O   LYS A   1      59.213   7.306  43.616  0.00  0.00    -0.274 OA
BRANCH  59  63
ATOM     63  CA  LYS A   1      61.452   6.557  44.121  0.00  0.00    +0.145 C 
BRANCH  63  64
ATOM     64  N   LYS A   1      60.883   5.219  44.237  0.00  0.00    -0.238 NA
ATOM     65  H   LYS A   1      60.142   4.925  43.569  0.00  0.00    +0.142 HD
ENDBRANCH  63  64
BRANCH  63  66
ATOM     66  CB  LYS A   1      62.507   6.618  42.993  0.00  0.00    +0.026 C 
BRANCH  66  67
ATOM     67  CG  LYS A   1      63.808   5.789  43.222  0.00  0.00    -0.000 C 
BRANCH  67  68
ATOM     68  CD  LYS A   1      64.632   6.276  44.435  0.00  0.00    -0.024 C 
BRANCH  68  69
ATOM     69  CE  LYS A   1      65.929   5.491  44.603  0.00  0.00    -0.086 C 
BRANCH  69  70
ATOM     70  NZ  LYS A   1      65.662   4.050  44.929  0.00  0.00    +0.380 N 
ATOM     71  HZ1 LYS A   1      65.123   3.991  45.817  0.00  0.00    -0.089 HD
ATOM     72  HZ2 LYS A   1      66.566   3.547  45.036  0.00  0.00    -0.089 HD
ATOM     73  HZ3 LYS A   1      65.112   3.618  44.159  0.00  0.00    -0.089 HD
ENDBRANCH  69  70
ENDBRANCH  68  69
ENDBRANCH  67  68
ENDBRANCH  66  67
ENDBRANCH  63  66
ENDBRANCH  59  63
ENDBRANCH  58  60
BRANCH  58  74
ATOM     74  CB  MET A   2      59.748  10.782  45.034  0.00  0.00    +0.041 C 
BRANCH  74  75
ATOM     75  CG  MET A   2      58.682  11.851  44.986  0.00  0.00    +0.060 C 
BRANCH  75  76
ATOM     76  SD  MET A   2      57.412  11.398  46.129  0.00  0.00    -0.139 S 
ATOM     77  CE  MET A   2      57.734   9.678  46.338  0.00  0.00    +0.069 C 
ENDBRANCH  75  76
ENDBRANCH  74  75
ENDBRANCH  58  74
ENDBRANCH  54  58
ENDBRANCH  53  56
BRANCH  53  78
ATOM     78  CB  ILE A   3      60.696  11.844  39.378  0.00  0.00    +0.027 C 
ATOM     79  CG2 ILE A   3      61.731  10.713  39.407  0.00  0.00    +0.002 C 
BRANCH  78  80
ATOM     80  CG1 ILE A   3      59.354  11.419  38.785  0.00  0.00    +0.002 C 
ATOM     81  CD1 ILE A   3      59.493  10.805  37.415  0.00  0.00    +0.000 C 
ENDBRANCH  78  80
ENDBRANCH  53  78
ENDBRANCH  49  53
ENDBRANCH  48  51
ENDBRANCH  44  48
ENDBRANCH  43  45
ENDBRANCH   1  43
TORSDOF 36
REMARK  Name = ../refined-set-2016/1a94/1a94_pocket.pdb
REMARK  233 active torsions:
REMARK  status: ('A' for Active; 'I' for Inactive)
REMARK    1  A    between atoms: _1  and  _3
REMARK    2  A    between atoms: _3  and  _4
REMARK    3  A    between atoms: _3  and  _6
REMARK    4  A    between atoms: _6  and  _7
REMARK    5  A    between atoms: _7  and  _8
REMARK    6  A    between atoms: _8  and  _9
REMARK    7  A    between atoms: _18  and  _20
REMARK    8  A    between atoms: _20  and  _21
REMARK    9  A    between atoms: _20  and  _23
REMARK   10  A    between atoms: _23  and  _24
REMARK   11  A    between atoms: _27  and  _29
REMARK   12  A    between atoms: _29  and  _30
REMARK   13  A    between atoms: _29  and  _32
REMARK   14  A    between atoms: _32  and  _33
REMARK   15  A    between atoms: _36  and  _38
REMARK   16  A    between atoms: _38  and  _39
REMARK   17  A    between atoms: _38  and  _41
REMARK   18  A    between atoms: _41  and  _42
REMARK   19  A    between atoms: _45  and  _47
REMARK   20  A    between atoms: _47  and  _48
REMARK   21  A    between atoms: _47  and  _50
REMARK   22  A    between atoms: _50  and  _51
REMARK   23  A    between atoms: _54  and  _56
REMARK   24  A    between atoms: _56  and  _57
REMARK   25  A    between atoms: _59  and  _61
REMARK   26  A    between atoms: _61  and  _62
REMARK   27  A    between atoms: _65  and  _67
REMARK   28  A    between atoms: _67  and  _68
REMARK   29  A    between atoms: _67  and  _70
REMARK   30  A    between atoms: _70  and  _71
REMARK   31  A    between atoms: _74  and  _76
REMARK   32  A    between atoms: _76  and  _77
REMARK   33  A    between atoms: _76  and  _79
REMARK   34  A    between atoms: _79  and  _80
REMARK   35  A    between atoms: _83  and  _85
REMARK   36  A    between atoms: _85  and  _86
REMARK   37  A    between atoms: _85  and  _88
REMARK   38  A    between atoms: _88  and  _89
REMARK   39  A    between atoms: _92  and  _94
REMARK   40  A    between atoms: _94  and  _95
REMARK   41  A    between atoms: _94  and  _97
REMARK   42  A    between atoms: _100  and  _102
REMARK   43  A    between atoms: _102  and  _103
REMARK   44  A    between atoms: _102  and  _105
REMARK   45  A    between atoms: _105  and  _106
REMARK   46  A    between atoms: _106  and  _107
REMARK   47  A    between atoms: _107  and  _108
REMARK   48  A    between atoms: _108  and  _109
REMARK   49  A    between atoms: _113  and  _115
REMARK   50  A    between atoms: _115  and  _116
REMARK   51  A    between atoms: _115  and  _118
REMARK   52  A    between atoms: _118  and  _119
REMARK   53  A    between atoms: _119  and  _120
REMARK   54  A    between atoms: _122  and  _124
REMARK   55  A    between atoms: _124  and  _125
REMARK   56  A    between atoms: _124  and  _127
REMARK   57  A    between atoms: _127  and  _128
REMARK   58  A    between atoms: _131  and  _133
REMARK   59  A    between atoms: _133  and  _134
REMARK   60  A    between atoms: _136  and  _138
REMARK   61  A    between atoms: _138  and  _139
REMARK   62  A    between atoms: _141  and  _143
REMARK   63  A    between atoms: _143  and  _144
REMARK   64  A    between atoms: _143  and  _146
REMARK   65  A    between atoms: _146  and  _147
REMARK   66  A    between atoms: _150  and  _152
REMARK   67  A    between atoms: _152  and  _153
REMARK   68  A    between atoms: _155  and  _157
REMARK   69  A    between atoms: _157  and  _158
REMARK   70  A    between atoms: _160  and  _162
REMARK   71  A    between atoms: _162  and  _163
REMARK   72  A    between atoms: _162  and  _165
REMARK   73  A    between atoms: _165  and  _166
REMARK   74  A    between atoms: _172  and  _174
REMARK   75  A    between atoms: _174  and  _175
REMARK   76  A    between atoms: _174  and  _177
REMARK   77  A    between atoms: _177  and  _178
REMARK   78  A    between atoms: _181  and  _183
REMARK   79  A    between atoms: _183  and  _184
REMARK   80  A    between atoms: _183  and  _186
REMARK   81  A    between atoms: _189  and  _191
REMARK   82  A    between atoms: _191  and  _192
REMARK   83  A    between atoms: _191  and  _194
REMARK   84  A    between atoms: _194  and  _195
REMARK   85  A    between atoms: _195  and  _196
REMARK   86  A    between atoms: _201  and  _203
REMARK   87  A    between atoms: _203  and  _204
REMARK   88  A    between atoms: _203  and  _206
REMARK   89  A    between atoms: _206  and  _207
REMARK   90  A    between atoms: _210  and  _212
REMARK   91  A    between atoms: _212  and  _213
REMARK   92  A    between atoms: _212  and  _215
REMARK   93  A    between atoms: _215  and  _216
REMARK   94  A    between atoms: _219  and  _221
REMARK   95  A    between atoms: _221  and  _222
REMARK   96  A    between atoms: _221  and  _224
REMARK   97  A    between atoms: _224  and  _225
REMARK   98  A    between atoms: _229  and  _230
REMARK   99  A    between atoms: _235  and  _237
REMARK  100  A    between atoms: _237  and  _238
REMARK  101  A    between atoms: _237  and  _240
REMARK  102  A    between atoms: _243  and  _245
REMARK  103  A    between atoms: _245  and  _246
REMARK  104  A    between atoms: _245  and  _248
REMARK  105  A    between atoms: _248  and  _249
REMARK  106  A    between atoms: _254  and  _256
REMARK  107  A    between atoms: _256  and  _257
REMARK  108  A    between atoms: _256  and  _259
REMARK  109  A    between atoms: _259  and  _260
REMARK  110  A    between atoms: _263  and  _265
REMARK  111  A    between atoms: _265  and  _266
REMARK  112  A    between atoms: _265  and  _268
REMARK  113  A    between atoms: _268  and  _269
REMARK  114  A    between atoms: _272  and  _274
REMARK  115  A    between atoms: _274  and  _275
REMARK  116  A    between atoms: _277  and  _279
REMARK  117  A    between atoms: _279  and  _280
REMARK  118  A    between atoms: _279  and  _282
REMARK  119  A    between atoms: _282  and  _283
REMARK  120  A    between atoms: _283  and  _284
REMARK  121  A    between atoms: _284  and  _285
REMARK  122  A    between atoms: _294  and  _296
REMARK  123  A    between atoms: _296  and  _297
REMARK  124  A    between atoms: _296  and  _299
REMARK  125  A    between atoms: _299  and  _300
REMARK  126  A    between atoms: _305  and  _307
REMARK  127  A    between atoms: _307  and  _308
REMARK  128  A    between atoms: _307  and  _310
REMARK  129  A    between atoms: _310  and  _311
REMARK  130  A    between atoms: _311  and  _312
REMARK  131  A    between atoms: _312  and  _313
REMARK  132  A    between atoms: _322  and  _324
REMARK  133  A    between atoms: _324  and  _325
REMARK  134  A    between atoms: _324  and  _327
REMARK  135  A    between atoms: _327  and  _328
REMARK  136  A    between atoms: _331  and  _333
REMARK  137  A    between atoms: _333  and  _334
REMARK  138  A    between atoms: _333  and  _336
REMARK  139  A    between atoms: _336  and  _337
REMARK  140  A    between atoms: _340  and  _342
REMARK  141  A    between atoms: _342  and  _343
REMARK  142  A    between atoms: _342  and  _345
REMARK  143  A    between atoms: _345  and  _346
REMARK  144  A    between atoms: _349  and  _351
REMARK  145  A    between atoms: _351  and  _352
REMARK  146  A    between atoms: _354  and  _356
REMARK  147  A    between atoms: _356  and  _357
REMARK  148  A    between atoms: _360  and  _362
REMARK  149  A    between atoms: _362  and  _363
REMARK  150  A    between atoms: _362  and  _365
REMARK  151  A    between atoms: _365  and  _366
REMARK  152  A    between atoms: _369  and  _371
REMARK  153  A    between atoms: _371  and  _372
REMARK  154  A    between atoms: _371  and  _374
REMARK  155  A    between atoms: _374  and  _375
REMARK  156  A    between atoms: _378  and  _380
REMARK  157  A    between atoms: _380  and  _381
REMARK  158  A    between atoms: _380  and  _383
REMARK  159  A    between atoms: _383  and  _384
REMARK  160  A    between atoms: _387  and  _389
REMARK  161  A    between atoms: _389  and  _390
REMARK  162  A    between atoms: _389  and  _392
REMARK  163  A    between atoms: _395  and  _397
REMARK  164  A    between atoms: _397  and  _398
REMARK  165  A    between atoms: _397  and  _400
REMARK  166  A    between atoms: _400  and  _401
REMARK  167  A    between atoms: _401  and  _402
REMARK  168  A    between atoms: _402  and  _403
REMARK  169  A    between atoms: _403  and  _404
REMARK  170  A    between atoms: _408  and  _410
REMARK  171  A    between atoms: _410  and  _411
REMARK  172  A    between atoms: _410  and  _413
REMARK  173  A    between atoms: _413  and  _414
REMARK  174  A    between atoms: _414  and  _415
REMARK  175  A    between atoms: _417  and  _419
REMARK  176  A    between atoms: _419  and  _420
REMARK  177  A    between atoms: _419  and  _422
REMARK  178  A    between atoms: _422  and  _423
REMARK  179  A    between atoms: _426  and  _428
REMARK  180  A    between atoms: _428  and  _429
REMARK  181  A    between atoms: _431  and  _433
REMARK  182  A    between atoms: _433  and  _434
REMARK  183  A    between atoms: _436  and  _438
REMARK  184  A    between atoms: _438  and  _439
REMARK  185  A    between atoms: _438  and  _441
REMARK  186  A    between atoms: _441  and  _442
REMARK  187  A    between atoms: _445  and  _447
REMARK  188  A    between atoms: _447  and  _448
REMARK  189  A    between atoms: _450  and  _452
REMARK  190  A    between atoms: _452  and  _453
REMARK  191  A    between atoms: _455  and  _457
REMARK  192  A    between atoms: _457  and  _458
REMARK  193  A    between atoms: _457  and  _460
REMARK  194  A    between atoms: _460  and  _461
REMARK  195  A    between atoms: _467  and  _469
REMARK  196  A    between atoms: _469  and  _470
REMARK  197  A    between atoms: _469  and  _472
REMARK  198  A    between atoms: _472  and  _473
REMARK  199  A    between atoms: _476  and  _478
REMARK  200  A    between atoms: _478  and  _479
REMARK  201  A    between atoms: _478  and  _481
REMARK  202  A    between atoms: _484  and  _486
REMARK  203  A    between atoms: _486  and  _487
REMARK  204  A    between atoms: _486  and  _489
REMARK  205  A    between atoms: _489  and  _490
REMARK  206  A    between atoms: _493  and  _495
REMARK  207  A    between atoms: _495  and  _496
REMARK  208  A    between atoms: _495  and  _498
REMARK  209  A    between atoms: _498  and  _499
REMARK  210  A    between atoms: _503  and  _504
REMARK  211  A    between atoms: _509  and  _511
REMARK  212  A    between atoms: _511  and  _512
REMARK  213  A    between atoms: _511  and  _514
REMARK  214  A    between atoms: _517  and  _519
REMARK  215  A    between atoms: _519  and  _520
REMARK  216  A    between atoms: _519  and  _522
REMARK  217  A    between atoms: _522  and  _523
REMARK  218  A    between atoms: _528  and  _530
REMARK  219  A    between atoms: _530  and  _531
REMARK  220  A    between atoms: _530  and  _533
REMARK  221  A    between atoms: _533  and  _534
REMARK  222  A    between atoms: _537  and  _539
REMARK  223  A    between atoms: _539  and  _540
REMARK  224  A    between atoms: _539  and  _542
REMARK  225  A    between atoms: _542  and  _543
REMARK  226  A    between atoms: _546  and  _548
REMARK  227  A    between atoms: _548  and  _549
REMARK  228  A    between atoms: _551  and  _553
REMARK  229  A    between atoms: _553  and  _554
REMARK  230  A    between atoms: _553  and  _556
REMARK  231  A    between atoms: _556  and  _557
REMARK  232  A    between atoms: _557  and  _558
REMARK  233  A    between atoms: _558  and  _559
REMARK                            x       y       z     vdW  Elec       q    Type
REMARK                         _______ _______ _______ _____ _____    ______ ____
ROOT
ATOM      1  CA  VAL A   1      57.553   5.808  40.715  0.00  0.00    +0.133 C 
ENDROOT
BRANCH   1   2
ATOM      2  CB  VAL A   1      58.393   6.471  39.575  0.00  0.00    +0.023 C 
ATOM      3  CG2 VAL A   1      59.721   7.007  40.121  0.00  0.00    +0.002 C 
ATOM      4  CG1 VAL A   1      57.583   7.552  38.866  0.00  0.00    +0.002 C 
ENDBRANCH   1   2
BRANCH   1   5
ATOM      5  N   VAL A   1      57.255   6.730  41.802  0.00  0.00    -0.239 NA
ATOM      6  H   VAL A   1      58.012   7.003  42.461  0.00  0.00    +0.142 HD
ENDBRANCH   1   5
BRANCH   1   7
ATOM      7  C   VAL A   1      58.297   4.577  41.215  0.00  0.00    +0.224 C 
ATOM      8  O   VAL A   1      58.777   4.568  42.342  0.00  0.00    -0.287 OA
ENDBRANCH   1   7
TORSDOF 3
REMARK  Name = ../refined-set-2016/1a94/1a94_pocket.pdb
REMARK  233 active torsions:
REMARK  status: ('A' for Active; 'I' for Inactive)
REMARK    1  A    between atoms: _1  and  _3
REMARK    2  A    between atoms: _3  and  _4
REMARK    3  A    between atoms: _3  and  _6
REMARK    4  A    between atoms: _6  and  _7
REMARK    5  A    between atoms: _7  and  _8
REMARK    6  A    between atoms: _8  and  _9
REMARK    7  A    between atoms: _18  and  _20
REMARK    8  A    between atoms: _20  and  _21
REMARK    9  A    between atoms: _20  and  _23
REMARK   10  A    between atoms: _23  and  _24
REMARK   11  A    between atoms: _27  and  _29
REMARK   12  A    between atoms: _29  and  _30
REMARK   13  A    between atoms: _29  and  _32
REMARK   14  A    between atoms: _32  and  _33
REMARK   15  A    between atoms: _36  and  _38
REMARK   16  A    between atoms: _38  and  _39
REMARK   17  A    between atoms: _38  and  _41
REMARK   18  A    between atoms: _41  and  _42
REMARK   19  A    between atoms: _45  and  _47
REMARK   20  A    between atoms: _47  and  _48
REMARK   21  A    between atoms: _47  and  _50
REMARK   22  A    between atoms: _50  and  _51
REMARK   23  A    between atoms: _54  and  _56
REMARK   24  A    between atoms: _56  and  _57
REMARK   25  A    between atoms: _59  and  _61
REMARK   26  A    between atoms: _61  and  _62
REMARK   27  A    between atoms: _65  and  _67
REMARK   28  A    between atoms: _67  and  _68
REMARK   29  A    between atoms: _67  and  _70
REMARK   30  A    between atoms: _70  and  _71
REMARK   31  A    between atoms: _74  and  _76
REMARK   32  A    between atoms: _76  and  _77
REMARK   33  A    between atoms: _76  and  _79
REMARK   34  A    between atoms: _79  and  _80
REMARK   35  A    between atoms: _83  and  _85
REMARK   36  A    between atoms: _85  and  _86
REMARK   37  A    between atoms: _85  and  _88
REMARK   38  A    between atoms: _88  and  _89
REMARK   39  A    between atoms: _92  and  _94
REMARK   40  A    between atoms: _94  and  _95
REMARK   41  A    between atoms: _94  and  _97
REMARK   42  A    between atoms: _100  and  _102
REMARK   43  A    between atoms: _102  and  _103
REMARK   44  A    between atoms: _102  and  _105
REMARK   45  A    between atoms: _105  and  _106
REMARK   46  A    between atoms: _106  and  _107
REMARK   47  A    between atoms: _107  and  _108
REMARK   48  A    between atoms: _108  and  _109
REMARK   49  A    between atoms: _113  and  _115
REMARK   50  A    between atoms: _115  and  _116
REMARK   51  A    between atoms: _115  and  _118
REMARK   52  A    between atoms: _118  and  _119
REMARK   53  A    between atoms: _119  and  _120
REMARK   54  A    between atoms: _122  and  _124
REMARK   55  A    between atoms: _124  and  _125
REMARK   56  A    between atoms: _124  and  _127
REMARK   57  A    between atoms: _127  and  _128
REMARK   58  A    between atoms: _131  and  _133
REMARK   59  A    between atoms: _133  and  _134
REMARK   60  A    between atoms: _136  and  _138
REMARK   61  A    between atoms: _138  and  _139
REMARK   62  A    between atoms: _141  and  _143
REMARK   63  A    between atoms: _143  and  _144
REMARK   64  A    between atoms: _143  and  _146
REMARK   65  A    between atoms: _146  and  _147
REMARK   66  A    between atoms: _150  and  _152
REMARK   67  A    between atoms: _152  and  _153
REMARK   68  A    between atoms: _155  and  _157
REMARK   69  A    between atoms: _157  and  _158
REMARK   70  A    between atoms: _160  and  _162
REMARK   71  A    between atoms: _162  and  _163
REMARK   72  A    between atoms: _162  and  _165
REMARK   73  A    between atoms: _165  and  _166
REMARK   74  A    between atoms: _172  and  _174
REMARK   75  A    between atoms: _174  and  _175
REMARK   76  A    between atoms: _174  and  _177
REMARK   77  A    between atoms: _177  and  _178
REMARK   78  A    between atoms: _181  and  _183
REMARK   79  A    between atoms: _183  and  _184
REMARK   80  A    between atoms: _183  and  _186
REMARK   81  A    between atoms: _189  and  _191
REMARK   82  A    between atoms: _191  and  _192
REMARK   83  A    between atoms: _191  and  _194
REMARK   84  A    between atoms: _194  and  _195
REMARK   85  A    between atoms: _195  and  _196
REMARK   86  A    between atoms: _201  and  _203
REMARK   87  A    between atoms: _203  and  _204
REMARK   88  A    between atoms: _203  and  _206
REMARK   89  A    between atoms: _206  and  _207
REMARK   90  A    between atoms: _210  and  _212
REMARK   91  A    between atoms: _212  and  _213
REMARK   92  A    between atoms: _212  and  _215
REMARK   93  A    between atoms: _215  and  _216
REMARK   94  A    between atoms: _219  and  _221
REMARK   95  A    between atoms: _221  and  _222
REMARK   96  A    between atoms: _221  and  _224
REMARK   97  A    between atoms: _224  and  _225
REMARK   98  A    between atoms: _229  and  _230
REMARK   99  A    between atoms: _235  and  _237
REMARK  100  A    between atoms: _237  and  _238
REMARK  101  A    between atoms: _237  and  _240
REMARK  102  A    between atoms: _243  and  _245
REMARK  103  A    between atoms: _245  and  _246
REMARK  104  A    between atoms: _245  and  _248
REMARK  105  A    between atoms: _248  and  _249
REMARK  106  A    between atoms: _254  and  _256
REMARK  107  A    between atoms: _256  and  _257
REMARK  108  A    between atoms: _256  and  _259
REMARK  109  A    between atoms: _259  and  _260
REMARK  110  A    between atoms: _263  and  _265
REMARK  111  A    between atoms: _265  and  _266
REMARK  112  A    between atoms: _265  and  _268
REMARK  113  A    between atoms: _268  and  _269
REMARK  114  A    between atoms: _272  and  _274
REMARK  115  A    between atoms: _274  and  _275
REMARK  116  A    between atoms: _277  and  _279
REMARK  117  A    between atoms: _279  and  _280
REMARK  118  A    between atoms: _279  and  _282
REMARK  119  A    between atoms: _282  and  _283
REMARK  120  A    between atoms: _283  and  _284
REMARK  121  A    between atoms: _284  and  _285
REMARK  122  A    between atoms: _294  and  _296
REMARK  123  A    between atoms: _296  and  _297
REMARK  124  A    between atoms: _296  and  _299
REMARK  125  A    between atoms: _299  and  _300
REMARK  126  A    between atoms: _305  and  _307
REMARK  127  A    between atoms: _307  and  _308
REMARK  128  A    between atoms: _307  and  _310
REMARK  129  A    between atoms: _310  and  _311
REMARK  130  A    between atoms: _311  and  _312
REMARK  131  A    between atoms: _312  and  _313
REMARK  132  A    between atoms: _322  and  _324
REMARK  133  A    between atoms: _324  and  _325
REMARK  134  A    between atoms: _324  and  _327
REMARK  135  A    between atoms: _327  and  _328
REMARK  136  A    between atoms: _331  and  _333
REMARK  137  A    between atoms: _333  and  _334
REMARK  138  A    between atoms: _333  and  _336
REMARK  139  A    between atoms: _336  and  _337
REMARK  140  A    between atoms: _340  and  _342
REMARK  141  A    between atoms: _342  and  _343
REMARK  142  A    between atoms: _342  and  _345
REMARK  143  A    between atoms: _345  and  _346
REMARK  144  A    between atoms: _349  and  _351
REMARK  145  A    between atoms: _351  and  _352
REMARK  146  A    between atoms: _354  and  _356
REMARK  147  A    between atoms: _356  and  _357
REMARK  148  A    between atoms: _360  and  _362
REMARK  149  A    between atoms: _362  and  _363
REMARK  150  A    between atoms: _362  and  _365
REMARK  151  A    between atoms: _365  and  _366
REMARK  152  A    between atoms: _369  and  _371
REMARK  153  A    between atoms: _371  and  _372
REMARK  154  A    between atoms: _371  and  _374
REMARK  155  A    between atoms: _374  and  _375
REMARK  156  A    between atoms: _378  and  _380
REMARK  157  A    between atoms: _380  and  _381
REMARK  158  A    between atoms: _380  and  _383
REMARK  159  A    between atoms: _383  and  _384
REMARK  160  A    between atoms: _387  and  _389
REMARK  161  A    between atoms: _389  and  _390
REMARK  162  A    between atoms: _389  and  _392
REMARK  163  A    between atoms: _395  and  _397
REMARK  164  A    between atoms: _397  and  _398
REMARK  165  A    between atoms: _397  and  _400
REMARK  166  A    between atoms: _400  and  _401
REMARK  167  A    between atoms: _401  and  _402
REMARK  168  A    between atoms: _402  and  _403
REMARK  169  A    between atoms: _403  and  _404
REMARK  170  A    between atoms: _408  and  _410
REMARK  171  A    between atoms: _410  and  _411
REMARK  172  A    between atoms: _410  and  _413
REMARK  173  A    between atoms: _413  and  _414
REMARK  174  A    between atoms: _414  and  _415
REMARK  175  A    between atoms: _417  and  _419
REMARK  176  A    between atoms: _419  and  _420
REMARK  177  A    between atoms: _419  and  _422
REMARK  178  A    between atoms: _422  and  _423
REMARK  179  A    between atoms: _426  and  _428
REMARK  180  A    between atoms: _428  and  _429
REMARK  181  A    between atoms: _431  and  _433
REMARK  182  A    between atoms: _433  and  _434
REMARK  183  A    between atoms: _436  and  _438
REMARK  184  A    between atoms: _438  and  _439
REMARK  185  A    between atoms: _438  and  _441
REMARK  186  A    between atoms: _441  and  _442
REMARK  187  A    between atoms: _445  and  _447
REMARK  188  A    between atoms: _447  and  _448
REMARK  189  A    between atoms: _450  and  _452
REMARK  190  A    between atoms: _452  and  _453
REMARK  191  A    between atoms: _455  and  _457
REMARK  192  A    between atoms: _457  and  _458
REMARK  193  A    between atoms: _457  and  _460
REMARK  194  A    between atoms: _460  and  _461
REMARK  195  A    between atoms: _467  and  _469
REMARK  196  A    between atoms: _469  and  _470
REMARK  197  A    between atoms: _469  and  _472
REMARK  198  A    between atoms: _472  and  _473
REMARK  199  A    between atoms: _476  and  _478
REMARK  200  A    between atoms: _478  and  _479
REMARK  201  A    between atoms: _478  and  _481
REMARK  202  A    between atoms: _484  and  _486
REMARK  203  A    between atoms: _486  and  _487
REMARK  204  A    between atoms: _486  and  _489
REMARK  205  A    between atoms: _489  and  _490
REMARK  206  A    between atoms: _493  and  _495
REMARK  207  A    between atoms: _495  and  _496
REMARK  208  A    between atoms: _495  and  _498
REMARK  209  A    between atoms: _498  and  _499
REMARK  210  A    between atoms: _503  and  _504
REMARK  211  A    between atoms: _509  and  _511
REMARK  212  A    between atoms: _511  and  _512
REMARK  213  A    between atoms: _511  and  _514
REMARK  214  A    between atoms: _517  and  _519
REMARK  215  A    between atoms: _519  and  _520
REMARK  216  A    between atoms: _519  and  _522
REMARK  217  A    between atoms: _522  and  _523
REMARK  218  A    between atoms: _528  and  _530
REMARK  219  A    between atoms: _530  and  _531
REMARK  220  A    between atoms: _530  and  _533
REMARK  221  A    between atoms: _533  and  _534
REMARK  222  A    between atoms: _537  and  _539
REMARK  223  A    between atoms: _539  and  _540
REMARK  224  A    between atoms: _539  and  _542
REMARK  225  A    between atoms: _542  and  _543
REMARK  226  A    between atoms: _546  and  _548
REMARK  227  A    between atoms: _548  and  _549
REMARK  228  A    between atoms: _551  and  _553
REMARK  229  A    between atoms: _553  and  _554
REMARK  230  A    between atoms: _553  and  _556
REMARK  231  A    between atoms: _556  and  _557
REMARK  232  A    between atoms: _557  and  _558
REMARK  233  A    between atoms: _558  and  _559
REMARK                            x       y       z     vdW  Elec       q    Type
REMARK                         _______ _______ _______ _____ _____    ______ ____
ROOT
ATOM      1  CB  GLN A   1      63.710   3.219  40.472  0.00  0.00    +0.035 C 
ENDROOT
BRANCH   1   2
ATOM      2  CA  GLN A   1      62.698   2.358  39.757  0.00  0.00    +0.134 C 
BRANCH   2   3
ATOM      3  N   GLN A   1      61.476   2.215  40.523  0.00  0.00    -0.239 NA
ATOM      4  H   GLN A   1      61.507   1.940  41.526  0.00  0.00    +0.142 HD
ENDBRANCH   2   3
BRANCH   2   5
ATOM      5  C   GLN A   1      63.364   1.059  39.336  0.00  0.00    +0.224 C 
ATOM      6  O   GLN A   1      63.800   0.273  40.180  0.00  0.00    -0.287 OA
ENDBRANCH   2   5
ENDBRANCH   1   2
BRANCH   1   7
ATOM      7  CG  GLN A   1      64.849   3.511  39.543  0.00  0.00    +0.087 C 
BRANCH   7   8
ATOM      8  CD  GLN A   1      65.939   4.279  40.189  0.00  0.00    +0.219 C 
ATOM      9  NE2 GLN A   1      66.513   3.719  41.241  0.00  0.00    -0.329 N 
ATOM     10 HE21 GLN A   1      67.284   4.211  41.736  0.00  0.00    +0.145 HD
ATOM     11 HE22 GLN A   1      66.193   2.787  41.573  0.00  0.00    +0.145 HD
ATOM     12  OE1 GLN A   1      66.274   5.375  39.752  0.00  0.00    -0.275 OA
ENDBRANCH   7   8
ENDBRANCH   1   7
TORSDOF 5
REMARK  Name = ../refined-set-2016/1a94/1a94_pocket.pdb
REMARK  233 active torsions:
REMARK  status: ('A' for Active; 'I' for Inactive)
REMARK    1  A    between atoms: _1  and  _3
REMARK    2  A    between atoms: _3  and  _4
REMARK    3  A    between atoms: _3  and  _6
REMARK    4  A    between atoms: _6  and  _7
REMARK    5  A    between atoms: _7  and  _8
REMARK    6  A    between atoms: _8  and  _9
REMARK    7  A    between atoms: _18  and  _20
REMARK    8  A    between atoms: _20  and  _21
REMARK    9  A    between atoms: _20  and  _23
REMARK   10  A    between atoms: _23  and  _24
REMARK   11  A    between atoms: _27  and  _29
REMARK   12  A    between atoms: _29  and  _30
REMARK   13  A    between atoms: _29  and  _32
REMARK   14  A    between atoms: _32  and  _33
REMARK   15  A    between atoms: _36  and  _38
REMARK   16  A    between atoms: _38  and  _39
REMARK   17  A    between atoms: _38  and  _41
REMARK   18  A    between atoms: _41  and  _42
REMARK   19  A    between atoms: _45  and  _47
REMARK   20  A    between atoms: _47  and  _48
REMARK   21  A    between atoms: _47  and  _50
REMARK   22  A    between atoms: _50  and  _51
REMARK   23  A    between atoms: _54  and  _56
REMARK   24  A    between atoms: _56  and  _57
REMARK   25  A    between atoms: _59  and  _61
REMARK   26  A    between atoms: _61  and  _62
REMARK   27  A    between atoms: _65  and  _67
REMARK   28  A    between atoms: _67  and  _68
REMARK   29  A    between atoms: _67  and  _70
REMARK   30  A    between atoms: _70  and  _71
REMARK   31  A    between atoms: _74  and  _76
REMARK   32  A    between atoms: _76  and  _77
REMARK   33  A    between atoms: _76  and  _79
REMARK   34  A    between atoms: _79  and  _80
REMARK   35  A    between atoms: _83  and  _85
REMARK   36  A    between atoms: _85  and  _86
REMARK   37  A    between atoms: _85  and  _88
REMARK   38  A    between atoms: _88  and  _89
REMARK   39  A    between atoms: _92  and  _94
REMARK   40  A    between atoms: _94  and  _95
REMARK   41  A    between atoms: _94  and  _97
REMARK   42  A    between atoms: _100  and  _102
REMARK   43  A    between atoms: _102  and  _103
REMARK   44  A    between atoms: _102  and  _105
REMARK   45  A    between atoms: _105  and  _106
REMARK   46  A    between atoms: _106  and  _107
REMARK   47  A    between atoms: _107  and  _108
REMARK   48  A    between atoms: _108  and  _109
REMARK   49  A    between atoms: _113  and  _115
REMARK   50  A    between atoms: _115  and  _116
REMARK   51  A    between atoms: _115  and  _118
REMARK   52  A    between atoms: _118  and  _119
REMARK   53  A    between atoms: _119  and  _120
REMARK   54  A    between atoms: _122  and  _124
REMARK   55  A    between atoms: _124  and  _125
REMARK   56  A    between atoms: _124  and  _127
REMARK   57  A    between atoms: _127  and  _128
REMARK   58  A    between atoms: _131  and  _133
REMARK   59  A    between atoms: _133  and  _134
REMARK   60  A    between atoms: _136  and  _138
REMARK   61  A    between atoms: _138  and  _139
REMARK   62  A    between atoms: _141  and  _143
REMARK   63  A    between atoms: _143  and  _144
REMARK   64  A    between atoms: _143  and  _146
REMARK   65  A    between atoms: _146  and  _147
REMARK   66  A    between atoms: _150  and  _152
REMARK   67  A    between atoms: _152  and  _153
REMARK   68  A    between atoms: _155  and  _157
REMARK   69  A    between atoms: _157  and  _158
REMARK   70  A    between atoms: _160  and  _162
REMARK   71  A    between atoms: _162  and  _163
REMARK   72  A    between atoms: _162  and  _165
REMARK   73  A    between atoms: _165  and  _166
REMARK   74  A    between atoms: _172  and  _174
REMARK   75  A    between atoms: _174  and  _175
REMARK   76  A    between atoms: _174  and  _177
REMARK   77  A    between atoms: _177  and  _178
REMARK   78  A    between atoms: _181  and  _183
REMARK   79  A    between atoms: _183  and  _184
REMARK   80  A    between atoms: _183  and  _186
REMARK   81  A    between atoms: _189  and  _191
REMARK   82  A    between atoms: _191  and  _192
REMARK   83  A    between atoms: _191  and  _194
REMARK   84  A    between atoms: _194  and  _195
REMARK   85  A    between atoms: _195  and  _196
REMARK   86  A    between atoms: _201  and  _203
REMARK   87  A    between atoms: _203  and  _204
REMARK   88  A    between atoms: _203  and  _206
REMARK   89  A    between atoms: _206  and  _207
REMARK   90  A    between atoms: _210  and  _212
REMARK   91  A    between atoms: _212  and  _213
REMARK   92  A    between atoms: _212  and  _215
REMARK   93  A    between atoms: _215  and  _216
REMARK   94  A    between atoms: _219  and  _221
REMARK   95  A    between atoms: _221  and  _222
REMARK   96  A    between atoms: _221  and  _224
REMARK   97  A    between atoms: _224  and  _225
REMARK   98  A    between atoms: _229  and  _230
REMARK   99  A    between atoms: _235  and  _237
REMARK  100  A    between atoms: _237  and  _238
REMARK  101  A    between atoms: _237  and  _240
REMARK  102  A    between atoms: _243  and  _245
REMARK  103  A    between atoms: _245  and  _246
REMARK  104  A    between atoms: _245  and  _248
REMARK  105  A    between atoms: _248  and  _249
REMARK  106  A    between atoms: _254  and  _256
REMARK  107  A    between atoms: _256  and  _257
REMARK  108  A    between atoms: _256  and  _259
REMARK  109  A    between atoms: _259  and  _260
REMARK  110  A    between atoms: _263  and  _265
REMARK  111  A    between atoms: _265  and  _266
REMARK  112  A    between atoms: _265  and  _268
REMARK  113  A    between atoms: _268  and  _269
REMARK  114  A    between atoms: _272  and  _274
REMARK  115  A    between atoms: _274  and  _275
REMARK  116  A    between atoms: _277  and  _279
REMARK  117  A    between atoms: _279  and  _280
REMARK  118  A    between atoms: _279  and  _282
REMARK  119  A    between atoms: _282  and  _283
REMARK  120  A    between atoms: _283  and  _284
REMARK  121  A    between atoms: _284  and  _285
REMARK  122  A    between atoms: _294  and  _296
REMARK  123  A    between atoms: _296  and  _297
REMARK  124  A    between atoms: _296  and  _299
REMARK  125  A    between atoms: _299  and  _300
REMARK  126  A    between atoms: _305  and  _307
REMARK  127  A    between atoms: _307  and  _308
REMARK  128  A    between atoms: _307  and  _310
REMARK  129  A    between atoms: _310  and  _311
REMARK  130  A    between atoms: _311  and  _312
REMARK  131  A    between atoms: _312  and  _313
REMARK  132  A    between atoms: _322  and  _324
REMARK  133  A    between atoms: _324  and  _325
REMARK  134  A    between atoms: _324  and  _327
REMARK  135  A    between atoms: _327  and  _328
REMARK  136  A    between atoms: _331  and  _333
REMARK  137  A    between atoms: _333  and  _334
REMARK  138  A    between atoms: _333  and  _336
REMARK  139  A    between atoms: _336  and  _337
REMARK  140  A    between atoms: _340  and  _342
REMARK  141  A    between atoms: _342  and  _343
REMARK  142  A    between atoms: _342  and  _345
REMARK  143  A    between atoms: _345  and  _346
REMARK  144  A    between atoms: _349  and  _351
REMARK  145  A    between atoms: _351  and  _352
REMARK  146  A    between atoms: _354  and  _356
REMARK  147  A    between atoms: _356  and  _357
REMARK  148  A    between atoms: _360  and  _362
REMARK  149  A    between atoms: _362  and  _363
REMARK  150  A    between atoms: _362  and  _365
REMARK  151  A    between atoms: _365  and  _366
REMARK  152  A    between atoms: _369  and  _371
REMARK  153  A    between atoms: _371  and  _372
REMARK  154  A    between atoms: _371  and  _374
REMARK  155  A    between atoms: _374  and  _375
REMARK  156  A    between atoms: _378  and  _380
REMARK  157  A    between atoms: _380  and  _381
REMARK  158  A    between atoms: _380  and  _383
REMARK  159  A    between atoms: _383  and  _384
REMARK  160  A    between atoms: _387  and  _389
REMARK  161  A    between atoms: _389  and  _390
REMARK  162  A    between atoms: _389  and  _392
REMARK  163  A    between atoms: _395  and  _397
REMARK  164  A    between atoms: _397  and  _398
REMARK  165  A    between atoms: _397  and  _400
REMARK  166  A    between atoms: _400  and  _401
REMARK  167  A    between atoms: _401  and  _402
REMARK  168  A    between atoms: _402  and  _403
REMARK  169  A    between atoms: _403  and  _404
REMARK  170  A    between atoms: _408  and  _410
REMARK  171  A    between atoms: _410  and  _411
REMARK  172  A    between atoms: _410  and  _413
REMARK  173  A    between atoms: _413  and  _414
REMARK  174  A    between atoms: _414  and  _415
REMARK  175  A    between atoms: _417  and  _419
REMARK  176  A    between atoms: _419  and  _420
REMARK  177  A    between atoms: _419  and  _422
REMARK  178  A    between atoms: _422  and  _423
REMARK  179  A    between atoms: _426  and  _428
REMARK  180  A    between atoms: _428  and  _429
REMARK  181  A    between atoms: _431  and  _433
REMARK  182  A    between atoms: _433  and  _434
REMARK  183  A    between atoms: _436  and  _438
REMARK  184  A    between atoms: _438  and  _439
REMARK  185  A    between atoms: _438  and  _441
REMARK  186  A    between atoms: _441  and  _442
REMARK  187  A    between atoms: _445  and  _447
REMARK  188  A    between atoms: _447  and  _448
REMARK  189  A    between atoms: _450  and  _452
REMARK  190  A    between atoms: _452  and  _453
REMARK  191  A    between atoms: _455  and  _457
REMARK  192  A    between atoms: _457  and  _458
REMARK  193  A    between atoms: _457  and  _460
REMARK  194  A    between atoms: _460  and  _461
REMARK  195  A    between atoms: _467  and  _469
REMARK  196  A    between atoms: _469  and  _470
REMARK  197  A    between atoms: _469  and  _472
REMARK  198  A    between atoms: _472  and  _473
REMARK  199  A    between atoms: _476  and  _478
REMARK  200  A    between atoms: _478  and  _479
REMARK  201  A    between atoms: _478  and  _481
REMARK  202  A    between atoms: _484  and  _486
REMARK  203  A    between atoms: _486  and  _487
REMARK  204  A    between atoms: _486  and  _489
REMARK  205  A    between atoms: _489  and  _490
REMARK  206  A    between atoms: _493  and  _495
REMARK  207  A    between atoms: _495  and  _496
REMARK  208  A    between atoms: _495  and  _498
REMARK  209  A    between atoms: _498  and  _499
REMARK  210  A    between atoms: _503  and  _504
REMARK  211  A    between atoms: _509  and  _511
REMARK  212  A    between atoms: _511  and  _512
REMARK  213  A    between atoms: _511  and  _514
REMARK  214  A    between atoms: _517  and  _519
REMARK  215  A    between atoms: _519  and  _520
REMARK  216  A    between atoms: _519  and  _522
REMARK  217  A    between atoms: _522  and  _523
REMARK  218  A    between atoms: _528  and  _530
REMARK  219  A    between atoms: _530  and  _531
REMARK  220  A    between atoms: _530  and  _533
REMARK  221  A    between atoms: _533  and  _534
REMARK  222  A    between atoms: _537  and  _539
REMARK  223  A    between atoms: _539  and  _540
REMARK  224  A    between atoms: _539  and  _542
REMARK  225  A    between atoms: _542  and  _543
REMARK  226  A    between atoms: _546  and  _548
REMARK  227  A    between atoms: _548  and  _549
REMARK  228  A    between atoms: _551  and  _553
REMARK  229  A    between atoms: _553  and  _554
REMARK  230  A    between atoms: _553  and  _556
REMARK  231  A    between atoms: _556  and  _557
REMARK  232  A    between atoms: _557  and  _558
REMARK  233  A    between atoms: _558  and  _559
REMARK                            x       y       z     vdW  Elec       q    Type
REMARK                         _______ _______ _______ _____ _____    ______ ____
ROOT
ATOM      1  CA  THR A   1      67.142   3.093  34.102  0.00  0.00    +0.160 C 
ENDROOT
BRANCH   1   2
ATOM      2  N   THR A   1      68.280   2.929  33.214  0.00  0.00    -0.237 NA
ATOM      3  H   THR A   1      69.038   3.641  33.219  0.00  0.00    +0.142 HD
ENDBRANCH   1   2
BRANCH   1   4
ATOM      4  CB  THR A   1      67.521   4.044  35.268  0.00  0.00    +0.134 C 
ATOM      5  CG2 THR A   1      66.392   4.073  36.388  0.00  0.00    +0.034 C 
BRANCH   4   6
ATOM      6  OG1 THR A   1      68.762   3.573  35.823  0.00  0.00    -0.383 OA
ATOM      7  HG1 THR A   1      69.462   3.587  35.123  0.00  0.00    +0.210 HD
ENDBRANCH   4   6
ENDBRANCH   1   4
BRANCH   1   8
ATOM      8  C   THR A   1      65.820   3.518  33.438  0.00  0.00    +0.227 C 
ATOM      9  O   THR A   1      65.774   4.332  32.499  0.00  0.00    -0.287 OA
ENDBRANCH   1   8
TORSDOF 4
REMARK  Name = ../refined-set-2016/1a94/1a94_pocket.pdb
REMARK  233 active torsions:
REMARK  status: ('A' for Active; 'I' for Inactive)
REMARK    1  A    between atoms: _1  and  _3
REMARK    2  A    between atoms: _3  and  _4
REMARK    3  A    between atoms: _3  and  _6
REMARK    4  A    between atoms: _6  and  _7
REMARK    5  A    between atoms: _7  and  _8
REMARK    6  A    between atoms: _8  and  _9
REMARK    7  A    between atoms: _18  and  _20
REMARK    8  A    between atoms: _20  and  _21
REMARK    9  A    between atoms: _20  and  _23
REMARK   10  A    between atoms: _23  and  _24
REMARK   11  A    between atoms: _27  and  _29
REMARK   12  A    between atoms: _29  and  _30
REMARK   13  A    between atoms: _29  and  _32
REMARK   14  A    between atoms: _32  and  _33
REMARK   15  A    between atoms: _36  and  _38
REMARK   16  A    between atoms: _38  and  _39
REMARK   17  A    between atoms: _38  and  _41
REMARK   18  A    between atoms: _41  and  _42
REMARK   19  A    between atoms: _45  and  _47
REMARK   20  A    between atoms: _47  and  _48
REMARK   21  A    between atoms: _47  and  _50
REMARK   22  A    between atoms: _50  and  _51
REMARK   23  A    between atoms: _54  and  _56
REMARK   24  A    between atoms: _56  and  _57
REMARK   25  A    between atoms: _59  and  _61
REMARK   26  A    between atoms: _61  and  _62
REMARK   27  A    between atoms: _65  and  _67
REMARK   28  A    between atoms: _67  and  _68
REMARK   29  A    between atoms: _67  and  _70
REMARK   30  A    between atoms: _70  and  _71
REMARK   31  A    between atoms: _74  and  _76
REMARK   32  A    between atoms: _76  and  _77
REMARK   33  A    between atoms: _76  and  _79
REMARK   34  A    between atoms: _79  and  _80
REMARK   35  A    between atoms: _83  and  _85
REMARK   36  A    between atoms: _85  and  _86
REMARK   37  A    between atoms: _85  and  _88
REMARK   38  A    between atoms: _88  and  _89
REMARK   39  A    between atoms: _92  and  _94
REMARK   40  A    between atoms: _94  and  _95
REMARK   41  A    between atoms: _94  and  _97
REMARK   42  A    between atoms: _100  and  _102
REMARK   43  A    between atoms: _102  and  _103
REMARK   44  A    between atoms: _102  and  _105
REMARK   45  A    between atoms: _105  and  _106
REMARK   46  A    between atoms: _106  and  _107
REMARK   47  A    between atoms: _107  and  _108
REMARK   48  A    between atoms: _108  and  _109
REMARK   49  A    between atoms: _113  and  _115
REMARK   50  A    between atoms: _115  and  _116
REMARK   51  A    between atoms: _115  and  _118
REMARK   52  A    between atoms: _118  and  _119
REMARK   53  A    between atoms: _119  and  _120
REMARK   54  A    between atoms: _122  and  _124
REMARK   55  A    between atoms: _124  and  _125
REMARK   56  A    between atoms: _124  and  _127
REMARK   57  A    between atoms: _127  and  _128
REMARK   58  A    between atoms: _131  and  _133
REMARK   59  A    between atoms: _133  and  _134
REMARK   60  A    between atoms: _136  and  _138
REMARK   61  A    between atoms: _138  and  _139
REMARK   62  A    between atoms: _141  and  _143
REMARK   63  A    between atoms: _143  and  _144
REMARK   64  A    between atoms: _143  and  _146
REMARK   65  A    between atoms: _146  and  _147
REMARK   66  A    between atoms: _150  and  _152
REMARK   67  A    between atoms: _152  and  _153
REMARK   68  A    between atoms: _155  and  _157
REMARK   69  A    between atoms: _157  and  _158
REMARK   70  A    between atoms: _160  and  _162
REMARK   71  A    between atoms: _162  and  _163
REMARK   72  A    between atoms: _162  and  _165
REMARK   73  A    between atoms: _165  and  _166
REMARK   74  A    between atoms: _172  and  _174
REMARK   75  A    between atoms: _174  and  _175
REMARK   76  A    between atoms: _174  and  _177
REMARK   77  A    between atoms: _177  and  _178
REMARK   78  A    between atoms: _181  and  _183
REMARK   79  A    between atoms: _183  and  _184
REMARK   80  A    between atoms: _183  and  _186
REMARK   81  A    between atoms: _189  and  _191
REMARK   82  A    between atoms: _191  and  _192
REMARK   83  A    between atoms: _191  and  _194
REMARK   84  A    between atoms: _194  and  _195
REMARK   85  A    between atoms: _195  and  _196
REMARK   86  A    between atoms: _201  and  _203
REMARK   87  A    between atoms: _203  and  _204
REMARK   88  A    between atoms: _203  and  _206
REMARK   89  A    between atoms: _206  and  _207
REMARK   90  A    between atoms: _210  and  _212
REMARK   91  A    between atoms: _212  and  _213
REMARK   92  A    between atoms: _212  and  _215
REMARK   93  A    between atoms: _215  and  _216
REMARK   94  A    between atoms: _219  and  _221
REMARK   95  A    between atoms: _221  and  _222
REMARK   96  A    between atoms: _221  and  _224
REMARK   97  A    between atoms: _224  and  _225
REMARK   98  A    between atoms: _229  and  _230
REMARK   99  A    between atoms: _235  and  _237
REMARK  100  A    between atoms: _237  and  _238
REMARK  101  A    between atoms: _237  and  _240
REMARK  102  A    between atoms: _243  and  _245
REMARK  103  A    between atoms: _245  and  _246
REMARK  104  A    between atoms: _245  and  _248
REMARK  105  A    between atoms: _248  and  _249
REMARK  106  A    between atoms: _254  and  _256
REMARK  107  A    between atoms: _256  and  _257
REMARK  108  A    between atoms: _256  and  _259
REMARK  109  A    between atoms: _259  and  _260
REMARK  110  A    between atoms: _263  and  _265
REMARK  111  A    between atoms: _265  and  _266
REMARK  112  A    between atoms: _265  and  _268
REMARK  113  A    between atoms: _268  and  _269
REMARK  114  A    between atoms: _272  and  _274
REMARK  115  A    between atoms: _274  and  _275
REMARK  116  A    between atoms: _277  and  _279
REMARK  117  A    between atoms: _279  and  _280
REMARK  118  A    between atoms: _279  and  _282
REMARK  119  A    between atoms: _282  and  _283
REMARK  120  A    between atoms: _283  and  _284
REMARK  121  A    between atoms: _284  and  _285
REMARK  122  A    between atoms: _294  and  _296
REMARK  123  A    between atoms: _296  and  _297
REMARK  124  A    between atoms: _296  and  _299
REMARK  125  A    between atoms: _299  and  _300
REMARK  126  A    between atoms: _305  and  _307
REMARK  127  A    between atoms: _307  and  _308
REMARK  128  A    between atoms: _307  and  _310
REMARK  129  A    between atoms: _310  and  _311
REMARK  130  A    between atoms: _311  and  _312
REMARK  131  A    between atoms: _312  and  _313
REMARK  132  A    between atoms: _322  and  _324
REMARK  133  A    between atoms: _324  and  _325
REMARK  134  A    between atoms: _324  and  _327
REMARK  135  A    between atoms: _327  and  _328
REMARK  136  A    between atoms: _331  and  _333
REMARK  137  A    between atoms: _333  and  _334
REMARK  138  A    between atoms: _333  and  _336
REMARK  139  A    between atoms: _336  and  _337
REMARK  140  A    between atoms: _340  and  _342
REMARK  141  A    between atoms: _342  and  _343
REMARK  142  A    between atoms: _342  and  _345
REMARK  143  A    between atoms: _345  and  _346
REMARK  144  A    between atoms: _349  and  _351
REMARK  145  A    between atoms: _351  and  _352
REMARK  146  A    between atoms: _354  and  _356
REMARK  147  A    between atoms: _356  and  _357
REMARK  148  A    between atoms: _360  and  _362
REMARK  149  A    between atoms: _362  and  _363
REMARK  150  A    between atoms: _362  and  _365
REMARK  151  A    between atoms: _365  and  _366
REMARK  152  A    between atoms: _369  and  _371
REMARK  153  A    between atoms: _371  and  _372
REMARK  154  A    between atoms: _371  and  _374
REMARK  155  A    between atoms: _374  and  _375
REMARK  156  A    between atoms: _378  and  _380
REMARK  157  A    between atoms: _380  and  _381
REMARK  158  A    between atoms: _380  and  _383
REMARK  159  A    between atoms: _383  and  _384
REMARK  160  A    between atoms: _387  and  _389
REMARK  161  A    between atoms: _389  and  _390
REMARK  162  A    between atoms: _389  and  _392
REMARK  163  A    between atoms: _395  and  _397
REMARK  164  A    between atoms: _397  and  _398
REMARK  165  A    between atoms: _397  and  _400
REMARK  166  A    between atoms: _400  and  _401
REMARK  167  A    between atoms: _401  and  _402
REMARK  168  A    between atoms: _402  and  _403
REMARK  169  A    between atoms: _403  and  _404
REMARK  170  A    between atoms: _408  and  _410
REMARK  171  A    between atoms: _410  and  _411
REMARK  172  A    between atoms: _410  and  _413
REMARK  173  A    between atoms: _413  and  _414
REMARK  174  A    between atoms: _414  and  _415
REMARK  175  A    between atoms: _417  and  _419
REMARK  176  A    between atoms: _419  and  _420
REMARK  177  A    between atoms: _419  and  _422
REMARK  178  A    between atoms: _422  and  _423
REMARK  179  A    between atoms: _426  and  _428
REMARK  180  A    between atoms: _428  and  _429
REMARK  181  A    between atoms: _431  and  _433
REMARK  182  A    between atoms: _433  and  _434
REMARK  183  A    between atoms: _436  and  _438
REMARK  184  A    between atoms: _438  and  _439
REMARK  185  A    between atoms: _438  and  _441
REMARK  186  A    between atoms: _441  and  _442
REMARK  187  A    between atoms: _445  and  _447
REMARK  188  A    between atoms: _447  and  _448
REMARK  189  A    between atoms: _450  and  _452
REMARK  190  A    between atoms: _452  and  _453
REMARK  191  A    between atoms: _455  and  _457
REMARK  192  A    between atoms: _457  and  _458
REMARK  193  A    between atoms: _457  and  _460
REMARK  194  A    between atoms: _460  and  _461
REMARK  195  A    between atoms: _467  and  _469
REMARK  196  A    between atoms: _469  and  _470
REMARK  197  A    between atoms: _469  and  _472
REMARK  198  A    between atoms: _472  and  _473
REMARK  199  A    between atoms: _476  and  _478
REMARK  200  A    between atoms: _478  and  _479
REMARK  201  A    between atoms: _478  and  _481
REMARK  202  A    between atoms: _484  and  _486
REMARK  203  A    between atoms: _486  and  _487
REMARK  204  A    between atoms: _486  and  _489
REMARK  205  A    between atoms: _489  and  _490
REMARK  206  A    between atoms: _493  and  _495
REMARK  207  A    between atoms: _495  and  _496
REMARK  208  A    between atoms: _495  and  _498
REMARK  209  A    between atoms: _498  and  _499
REMARK  210  A    between atoms: _503  and  _504
REMARK  211  A    between atoms: _509  and  _511
REMARK  212  A    between atoms: _511  and  _512
REMARK  213  A    between atoms: _511  and  _514
REMARK  214  A    between atoms: _517  and  _519
REMARK  215  A    between atoms: _519  and  _520
REMARK  216  A    between atoms: _519  and  _522
REMARK  217  A    between atoms: _522  and  _523
REMARK  218  A    between atoms: _528  and  _530
REMARK  219  A    between atoms: _530  and  _531
REMARK  220  A    between atoms: _530  and  _533
REMARK  221  A    between atoms: _533  and  _534
REMARK  222  A    between atoms: _537  and  _539
REMARK  223  A    between atoms: _539  and  _540
REMARK  224  A    between atoms: _539  and  _542
REMARK  225  A    between atoms: _542  and  _543
REMARK  226  A    between atoms: _546  and  _548
REMARK  227  A    between atoms: _548  and  _549
REMARK  228  A    between atoms: _551  and  _553
REMARK  229  A    between atoms: _553  and  _554
REMARK  230  A    between atoms: _553  and  _556
REMARK  231  A    between atoms: _556  and  _557
REMARK  232  A    between atoms: _557  and  _558
REMARK  233  A    between atoms: _558  and  _559
REMARK                            x       y       z     vdW  Elec       q    Type
REMARK                         _______ _______ _______ _____ _____    ______ ____
ROOT
ATOM      1  CA  LEU A   1      60.989   4.652  36.027  0.00  0.00    +0.133 C 
ENDROOT
BRANCH   1   2
ATOM      2  N   LEU A   1      61.863   4.410  34.877  0.00  0.00    -0.239 NA
ATOM      3  H   LEU A   1      61.928   5.143  34.142  0.00  0.00    +0.142 HD
ENDBRANCH   1   2
BRANCH   1   4
ATOM      4  C   LEU A   1      59.577   4.359  35.533  0.00  0.00    +0.224 C 
ATOM      5  O   LEU A   1      59.252   4.738  34.392  0.00  0.00    -0.287 OA
ENDBRANCH   1   4
BRANCH   1   6
ATOM      6  CB  LEU A   1      61.114   6.112  36.506  0.00  0.00    +0.025 C 
BRANCH   6   7
ATOM      7  CG  LEU A   1      62.509   6.689  36.840  0.00  0.00    +0.002 C 
ATOM      8  CD2 LEU A   1      63.175   6.006  38.006  0.00  0.00    +0.000 C 
ATOM      9  CD1 LEU A   1      62.341   8.140  37.187  0.00  0.00    +0.000 C 
ENDBRANCH   6   7
ENDBRANCH   1   6
TORSDOF 4
REMARK  Name = ../refined-set-2016/1a94/1a94_pocket.pdb
REMARK  233 active torsions:
REMARK  status: ('A' for Active; 'I' for Inactive)
REMARK    1  A    between atoms: _1  and  _3
REMARK    2  A    between atoms: _3  and  _4
REMARK    3  A    between atoms: _3  and  _6
REMARK    4  A    between atoms: _6  and  _7
REMARK    5  A    between atoms: _7  and  _8
REMARK    6  A    between atoms: _8  and  _9
REMARK    7  A    between atoms: _18  and  _20
REMARK    8  A    between atoms: _20  and  _21
REMARK    9  A    between atoms: _20  and  _23
REMARK   10  A    between atoms: _23  and  _24
REMARK   11  A    between atoms: _27  and  _29
REMARK   12  A    between atoms: _29  and  _30
REMARK   13  A    between atoms: _29  and  _32
REMARK   14  A    between atoms: _32  and  _33
REMARK   15  A    between atoms: _36  and  _38
REMARK   16  A    between atoms: _38  and  _39
REMARK   17  A    between atoms: _38  and  _41
REMARK   18  A    between atoms: _41  and  _42
REMARK   19  A    between atoms: _45  and  _47
REMARK   20  A    between atoms: _47  and  _48
REMARK   21  A    between atoms: _47  and  _50
REMARK   22  A    between atoms: _50  and  _51
REMARK   23  A    between atoms: _54  and  _56
REMARK   24  A    between atoms: _56  and  _57
REMARK   25  A    between atoms: _59  and  _61
REMARK   26  A    between atoms: _61  and  _62
REMARK   27  A    between atoms: _65  and  _67
REMARK   28  A    between atoms: _67  and  _68
REMARK   29  A    between atoms: _67  and  _70
REMARK   30  A    between atoms: _70  and  _71
REMARK   31  A    between atoms: _74  and  _76
REMARK   32  A    between atoms: _76  and  _77
REMARK   33  A    between atoms: _76  and  _79
REMARK   34  A    between atoms: _79  and  _80
REMARK   35  A    between atoms: _83  and  _85
REMARK   36  A    between atoms: _85  and  _86
REMARK   37  A    between atoms: _85  and  _88
REMARK   38  A    between atoms: _88  and  _89
REMARK   39  A    between atoms: _92  and  _94
REMARK   40  A    between atoms: _94  and  _95
REMARK   41  A    between atoms: _94  and  _97
REMARK   42  A    between atoms: _100  and  _102
REMARK   43  A    between atoms: _102  and  _103
REMARK   44  A    between atoms: _102  and  _105
REMARK   45  A    between atoms: _105  and  _106
REMARK   46  A    between atoms: _106  and  _107
REMARK   47  A    between atoms: _107  and  _108
REMARK   48  A    between atoms: _108  and  _109
REMARK   49  A    between atoms: _113  and  _115
REMARK   50  A    between atoms: _115  and  _116
REMARK   51  A    between atoms: _115  and  _118
REMARK   52  A    between atoms: _118  and  _119
REMARK   53  A    between atoms: _119  and  _120
REMARK   54  A    between atoms: _122  and  _124
REMARK   55  A    between atoms: _124  and  _125
REMARK   56  A    between atoms: _124  and  _127
REMARK   57  A    between atoms: _127  and  _128
REMARK   58  A    between atoms: _131  and  _133
REMARK   59  A    between atoms: _133  and  _134
REMARK   60  A    between atoms: _136  and  _138
REMARK   61  A    between atoms: _138  and  _139
REMARK   62  A    between atoms: _141  and  _143
REMARK   63  A    between atoms: _143  and  _144
REMARK   64  A    between atoms: _143  and  _146
REMARK   65  A    between atoms: _146  and  _147
REMARK   66  A    between atoms: _150  and  _152
REMARK   67  A    between atoms: _152  and  _153
REMARK   68  A    between atoms: _155  and  _157
REMARK   69  A    between atoms: _157  and  _158
REMARK   70  A    between atoms: _160  and  _162
REMARK   71  A    between atoms: _162  and  _163
REMARK   72  A    between atoms: _162  and  _165
REMARK   73  A    between atoms: _165  and  _166
REMARK   74  A    between atoms: _172  and  _174
REMARK   75  A    between atoms: _174  and  _175
REMARK   76  A    between atoms: _174  and  _177
REMARK   77  A    between atoms: _177  and  _178
REMARK   78  A    between atoms: _181  and  _183
REMARK   79  A    between atoms: _183  and  _184
REMARK   80  A    between atoms: _183  and  _186
REMARK   81  A    between atoms: _189  and  _191
REMARK   82  A    between atoms: _191  and  _192
REMARK   83  A    between atoms: _191  and  _194
REMARK   84  A    between atoms: _194  and  _195
REMARK   85  A    between atoms: _195  and  _196
REMARK   86  A    between atoms: _201  and  _203
REMARK   87  A    between atoms: _203  and  _204
REMARK   88  A    between atoms: _203  and  _206
REMARK   89  A    between atoms: _206  and  _207
REMARK   90  A    between atoms: _210  and  _212
REMARK   91  A    between atoms: _212  and  _213
REMARK   92  A    between atoms: _212  and  _215
REMARK   93  A    between atoms: _215  and  _216
REMARK   94  A    between atoms: _219  and  _221
REMARK   95  A    between atoms: _221  and  _222
REMARK   96  A    between atoms: _221  and  _224
REMARK   97  A    between atoms: _224  and  _225
REMARK   98  A    between atoms: _229  and  _230
REMARK   99  A    between atoms: _235  and  _237
REMARK  100  A    between atoms: _237  and  _238
REMARK  101  A    between atoms: _237  and  _240
REMARK  102  A    between atoms: _243  and  _245
REMARK  103  A    between atoms: _245  and  _246
REMARK  104  A    between atoms: _245  and  _248
REMARK  105  A    between atoms: _248  and  _249
REMARK  106  A    between atoms: _254  and  _256
REMARK  107  A    between atoms: _256  and  _257
REMARK  108  A    between atoms: _256  and  _259
REMARK  109  A    between atoms: _259  and  _260
REMARK  110  A    between atoms: _263  and  _265
REMARK  111  A    between atoms: _265  and  _266
REMARK  112  A    between atoms: _265  and  _268
REMARK  113  A    between atoms: _268  and  _269
REMARK  114  A    between atoms: _272  and  _274
REMARK  115  A    between atoms: _274  and  _275
REMARK  116  A    between atoms: _277  and  _279
REMARK  117  A    between atoms: _279  and  _280
REMARK  118  A    between atoms: _279  and  _282
REMARK  119  A    between atoms: _282  and  _283
REMARK  120  A    between atoms: _283  and  _284
REMARK  121  A    between atoms: _284  and  _285
REMARK  122  A    between atoms: _294  and  _296
REMARK  123  A    between atoms: _296  and  _297
REMARK  124  A    between atoms: _296  and  _299
REMARK  125  A    between atoms: _299  and  _300
REMARK  126  A    between atoms: _305  and  _307
REMARK  127  A    between atoms: _307  and  _308
REMARK  128  A    between atoms: _307  and  _310
REMARK  129  A    between atoms: _310  and  _311
REMARK  130  A    between atoms: _311  and  _312
REMARK  131  A    between atoms: _312  and  _313
REMARK  132  A    between atoms: _322  and  _324
REMARK  133  A    between atoms: _324  and  _325
REMARK  134  A    between atoms: _324  and  _327
REMARK  135  A    between atoms: _327  and  _328
REMARK  136  A    between atoms: _331  and  _333
REMARK  137  A    between atoms: _333  and  _334
REMARK  138  A    between atoms: _333  and  _336
REMARK  139  A    between atoms: _336  and  _337
REMARK  140  A    between atoms: _340  and  _342
REMARK  141  A    between atoms: _342  and  _343
REMARK  142  A    between atoms: _342  and  _345
REMARK  143  A    between atoms: _345  and  _346
REMARK  144  A    between atoms: _349  and  _351
REMARK  145  A    between atoms: _351  and  _352
REMARK  146  A    between atoms: _354  and  _356
REMARK  147  A    between atoms: _356  and  _357
REMARK  148  A    between atoms: _360  and  _362
REMARK  149  A    between atoms: _362  and  _363
REMARK  150  A    between atoms: _362  and  _365
REMARK  151  A    between atoms: _365  and  _366
REMARK  152  A    between atoms: _369  and  _371
REMARK  153  A    between atoms: _371  and  _372
REMARK  154  A    between atoms: _371  and  _374
REMARK  155  A    between atoms: _374  and  _375
REMARK  156  A    between atoms: _378  and  _380
REMARK  157  A    between atoms: _380  and  _381
REMARK  158  A    between atoms: _380  and  _383
REMARK  159  A    between atoms: _383  and  _384
REMARK  160  A    between atoms: _387  and  _389
REMARK  161  A    between atoms: _389  and  _390
REMARK  162  A    between atoms: _389  and  _392
REMARK  163  A    between atoms: _395  and  _397
REMARK  164  A    between atoms: _397  and  _398
REMARK  165  A    between atoms: _397  and  _400
REMARK  166  A    between atoms: _400  and  _401
REMARK  167  A    between atoms: _401  and  _402
REMARK  168  A    between atoms: _402  and  _403
REMARK  169  A    between atoms: _403  and  _404
REMARK  170  A    between atoms: _408  and  _410
REMARK  171  A    between atoms: _410  and  _411
REMARK  172  A    between atoms: _410  and  _413
REMARK  173  A    between atoms: _413  and  _414
REMARK  174  A    between atoms: _414  and  _415
REMARK  175  A    between atoms: _417  and  _419
REMARK  176  A    between atoms: _419  and  _420
REMARK  177  A    between atoms: _419  and  _422
REMARK  178  A    between atoms: _422  and  _423
REMARK  179  A    between atoms: _426  and  _428
REMARK  180  A    between atoms: _428  and  _429
REMARK  181  A    between atoms: _431  and  _433
REMARK  182  A    between atoms: _433  and  _434
REMARK  183  A    between atoms: _436  and  _438
REMARK  184  A    between atoms: _438  and  _439
REMARK  185  A    between atoms: _438  and  _441
REMARK  186  A    between atoms: _441  and  _442
REMARK  187  A    between atoms: _445  and  _447
REMARK  188  A    between atoms: _447  and  _448
REMARK  189  A    between atoms: _450  and  _452
REMARK  190  A    between atoms: _452  and  _453
REMARK  191  A    between atoms: _455  and  _457
REMARK  192  A    between atoms: _457  and  _458
REMARK  193  A    between atoms: _457  and  _460
REMARK  194  A    between atoms: _460  and  _461
REMARK  195  A    between atoms: _467  and  _469
REMARK  196  A    between atoms: _469  and  _470
REMARK  197  A    between atoms: _469  and  _472
REMARK  198  A    between atoms: _472  and  _473
REMARK  199  A    between atoms: _476  and  _478
REMARK  200  A    between atoms: _478  and  _479
REMARK  201  A    between atoms: _478  and  _481
REMARK  202  A    between atoms: _484  and  _486
REMARK  203  A    between atoms: _486  and  _487
REMARK  204  A    between atoms: _486  and  _489
REMARK  205  A    between atoms: _489  and  _490
REMARK  206  A    between atoms: _493  and  _495
REMARK  207  A    between atoms: _495  and  _496
REMARK  208  A    between atoms: _495  and  _498
REMARK  209  A    between atoms: _498  and  _499
REMARK  210  A    between atoms: _503  and  _504
REMARK  211  A    between atoms: _509  and  _511
REMARK  212  A    between atoms: _511  and  _512
REMARK  213  A    between atoms: _511  and  _514
REMARK  214  A    between atoms: _517  and  _519
REMARK  215  A    between atoms: _519  and  _520
REMARK  216  A    between atoms: _519  and  _522
REMARK  217  A    between atoms: _522  and  _523
REMARK  218  A    between atoms: _528  and  _530
REMARK  219  A    between atoms: _530  and  _531
REMARK  220  A    between atoms: _530  and  _533
REMARK  221  A    between atoms: _533  and  _534
REMARK  222  A    between atoms: _537  and  _539
REMARK  223  A    between atoms: _539  and  _540
REMARK  224  A    between atoms: _539  and  _542
REMARK  225  A    between atoms: _542  and  _543
REMARK  226  A    between atoms: _546  and  _548
REMARK  227  A    between atoms: _548  and  _549
REMARK  228  A    between atoms: _551  and  _553
REMARK  229  A    between atoms: _553  and  _554
REMARK  230  A    between atoms: _553  and  _556
REMARK  231  A    between atoms: _556  and  _557
REMARK  232  A    between atoms: _557  and  _558
REMARK  233  A    between atoms: _558  and  _559
REMARK                            x       y       z     vdW  Elec       q    Type
REMARK                         _______ _______ _______ _____ _____    ______ ____
ROOT
ATOM      1  C   ILE A   5      60.230   9.323  28.238  0.00  0.00    +0.241 C 
ATOM      2  O   ILE A   5      60.571   8.572  29.166  0.00  0.00    -0.273 OA
ATOM      3  N   ILE A   6      61.018   9.620  27.200  0.00  0.00    -0.297 N 
ATOM      4  H   ILE A   6      60.646  10.250  26.461  0.00  0.00    +0.150 HD
ENDROOT
BRANCH   3   5
ATOM      5  CA  ILE A   6      62.363   9.107  27.055  0.00  0.00    +0.149 C 
BRANCH   5   6
ATOM      6  C   ILE A   6      63.242  10.289  27.424  0.00  0.00    +0.241 C 
ATOM      7  N   GLY A   7      63.944  10.198  28.546  0.00  0.00    -0.295 N 
ATOM      8  H   GLY A   7      63.877   9.338  29.127  0.00  0.00    +0.150 HD
ATOM      9  O   ILE A   6      63.219  11.301  26.734  0.00  0.00    -0.273 OA
BRANCH   7  10
ATOM     10  CA  GLY A   7      64.806  11.288  28.972  0.00  0.00    +0.176 C 
BRANCH  10  11
ATOM     11  C   GLY A   7      66.236  11.292  28.457  0.00  0.00    +0.243 C 
ATOM     12  N   ARG A   8      67.031  12.202  29.008  0.00  0.00    -0.297 N 
ATOM     13  H   ARG A   8      66.644  12.840  29.733  0.00  0.00    +0.150 HD
ATOM     14  O   GLY A   7      66.617  10.528  27.564  0.00  0.00    -0.273 OA
BRANCH  12  15
ATOM     15  CA  ARG A   8      68.431  12.331  28.624  0.00  0.00    +0.149 C 
BRANCH  15  16
ATOM     16  C   ARG A   8      69.306  11.127  29.004  0.00  0.00    +0.241 C 
ATOM     17  N   ASN A   9      68.979  10.418  30.078  0.00  0.00    -0.298 N 
ATOM     18  H   ASN A   9      68.162  10.698  30.657  0.00  0.00    +0.150 HD
ATOM     19  O   ARG A   8      70.285  10.865  28.351  0.00  0.00    -0.273 OA
BRANCH  17  20
ATOM     20  CA  ASN A   9      69.764   9.248  30.446  0.00  0.00    +0.146 C 
BRANCH  20  21
ATOM     21  C   ASN A   9      69.778   8.235  29.271  0.00  0.00    +0.227 C 
ATOM     22  O   ASN A   9      70.764   7.572  29.058  0.00  0.00    -0.286 OA
ENDBRANCH  20  21
BRANCH  20  23
ATOM     23  CB  ASN A   9      69.165   8.625  31.709  0.00  0.00    +0.112 C 
BRANCH  23  24
ATOM     24  CG  ASN A   9      67.846   7.965  31.450  0.00  0.00    +0.222 C 
ATOM     25  ND2 ASN A   9      67.743   6.727  31.829  0.00  0.00    -0.329 N 
ATOM     26 HD21 ASN A   9      68.535   6.266  32.321  0.00  0.00    +0.145 HD
ATOM     27 HD22 ASN A   9      66.869   6.196  31.640  0.00  0.00    +0.145 HD
ATOM     28  OD1 ASN A   9      66.948   8.543  30.873  0.00  0.00    -0.275 OA
ENDBRANCH  23  24
ENDBRANCH  20  23
ENDBRANCH  17  20
ENDBRANCH  15  16
BRANCH  15  29
ATOM     29  CB  ARG A   8      69.039  13.609  29.194  0.00  0.00    +0.033 C 
BRANCH  29  30
ATOM     30  CG  ARG A   8      68.481  14.841  28.579  0.00  0.00    +0.045 C 
BRANCH  30  31
ATOM     31  CD  ARG A   8      69.302  16.042  28.978  0.00  0.00    +0.174 C 
BRANCH  31  32
ATOM     32  NE  ARG A   8      69.255  16.245  30.414  0.00  0.00    -0.265 N 
ATOM     33  CZ  ARG A   8      70.213  15.877  31.259  0.00  0.00    +0.342 C 
ATOM     34  NH2 ARG A   8      70.006  16.068  32.548  0.00  0.00    -0.292 N 
ATOM     35 HH21 ARG A   8      70.734  15.792  33.238  0.00  0.00    +0.255 HD
ATOM     36 HH22 ARG A   8      69.115  16.494  32.874  0.00  0.00    +0.255 HD
ATOM     37  NH1 ARG A   8      71.341  15.279  30.827  0.00  0.00    -0.292 N 
ATOM     38 HH11 ARG A   8      72.076  15.001  31.508  0.00  0.00    +0.255 HD
ATOM     39 HH12 ARG A   8      71.477  15.096  29.812  0.00  0.00    +0.255 HD
ATOM     40  HE  ARG A   8      68.413  16.711  30.810  0.00  0.00    +0.259 HD
ENDBRANCH  31  32
ENDBRANCH  30  31
ENDBRANCH  29  30
ENDBRANCH  15  29
ENDBRANCH  12  15
ENDBRANCH  10  11
ENDBRANCH   7  10
ENDBRANCH   5   6
BRANCH   5  41
ATOM     41  CB  ILE A   6      62.645   8.677  25.566  0.00  0.00    +0.027 C 
ATOM     42  CG2 ILE A   6      64.150   8.334  25.363  0.00  0.00    +0.002 C 
BRANCH  41  43
ATOM     43  CG1 ILE A   6      61.668   7.562  25.128  0.00  0.00    +0.002 C 
ATOM     44  CD1 ILE A   6      61.549   6.422  26.113  0.00  0.00    +0.000 C 
ENDBRANCH  41  43
ENDBRANCH   5  41
ENDBRANCH   3   5
BRANCH   1  45
ATOM     45  CA  ILE A   5      58.848   9.986  28.237  0.00  0.00    +0.149 C 
BRANCH  45  47
ATOM     46  C   ASN A   4      56.747   8.939  27.738  0.00  0.00    +0.241 C 
ATOM     47  N   ILE A   5      57.769   9.086  28.564  0.00  0.00    -0.297 N 
ATOM     48  H   ILE A   5      57.795   8.550  29.455  0.00  0.00    +0.150 HD
ATOM     49  O   ASN A   4      56.708   9.456  26.622  0.00  0.00    -0.273 OA
BRANCH  46  50
ATOM     50  CA  ASN A   4      55.636   8.022  28.178  0.00  0.00    +0.158 C 
BRANCH  50  53
ATOM     51  C   VAL A   3      53.978   9.661  28.894  0.00  0.00    +0.241 C 
ATOM     52  O   VAL A   3      54.650   9.938  29.891  0.00  0.00    -0.273 OA
ATOM     53  N   ASN A   4      54.347   8.715  28.030  0.00  0.00    -0.297 N 
ATOM     54  H   ASN A   4      53.716   8.464  27.242  0.00  0.00    +0.150 HD
BRANCH  51  55
ATOM     55  CA  VAL A   3      52.607  10.332  28.682  0.00  0.00    +0.149 C 
BRANCH  55  57
ATOM     56  C   PRO A   2      50.780  10.836  30.221  0.00  0.00    +0.241 C 
ATOM     57  N   VAL A   3      52.088  10.863  29.963  0.00  0.00    -0.297 N 
ATOM     58  H   VAL A   3      52.746  11.259  30.664  0.00  0.00    +0.150 HD
ATOM     59  O   PRO A   2      49.966  10.430  29.421  0.00  0.00    -0.273 OA
BRANCH  56  65
ATOM     60  C   THR A   1      51.729  10.057  32.904  0.00  0.00    +0.244 C 
ATOM     61  N   PRO A   2      51.361  11.300  32.563  0.00  0.00    -0.272 N 
ATOM     62  CD  PRO A   2      51.677  12.637  33.084  0.00  0.00    +0.094 C 
ATOM     63  CG  PRO A   2      51.281  13.505  31.908  0.00  0.00    +0.024 C 
ATOM     64  CB  PRO A   2      50.024  12.873  31.443  0.00  0.00    +0.031 C 
ATOM     65  CA  PRO A   2      50.310  11.378  31.544  0.00  0.00    +0.152 C 
ATOM     66  O   THR A   1      51.124   9.089  32.464  0.00  0.00    -0.273 OA
BRANCH  60  67
ATOM     67  CA  THR A   1      52.842   9.873  33.961  0.00  0.00    +0.172 C 
BRANCH  67  68
ATOM     68  N   THR A   1      52.503   8.725  34.807  0.00  0.00    -0.236 NA
ATOM     69  H   THR A   1      52.842   7.781  34.533  0.00  0.00    +0.142 HD
ENDBRANCH  67  68
BRANCH  67  70
ATOM     70  CB  THR A   1      54.247   9.642  33.275  0.00  0.00    +0.135 C 
ATOM     71  CG2 THR A   1      54.278   8.294  32.489  0.00  0.00    +0.034 C 
BRANCH  70  72
ATOM     72  OG1 THR A   1      54.601  10.762  32.435  0.00  0.00    -0.383 OA
ATOM     73  HG1 THR A   1      53.916  10.873  31.729  0.00  0.00    +0.210 HD
ENDBRANCH  70  72
ENDBRANCH  67  70
ENDBRANCH  60  67
ENDBRANCH  56  65
ENDBRANCH  55  57
BRANCH  55  74
ATOM     74  CB  VAL A   3      52.670  11.443  27.577  0.00  0.00    +0.027 C 
ATOM     75  CG2 VAL A   3      53.917  12.219  27.658  0.00  0.00    +0.002 C 
ATOM     76  CG1 VAL A   3      52.537  10.843  26.196  0.00  0.00    +0.002 C 
ENDBRANCH  55  74
ENDBRANCH  51  55
ENDBRANCH  50  53
BRANCH  50  77
ATOM     77  CB  ASN A   4      55.677   6.735  27.351  0.00  0.00    +0.114 C 
BRANCH  77  78
ATOM     78  CG  ASN A   4      54.652   5.735  27.802  0.00  0.00    +0.222 C 
ATOM     79  OD1 ASN A   4      54.344   5.644  28.988  0.00  0.00    -0.275 OA
ATOM     80  ND2 ASN A   4      54.070   5.016  26.855  0.00  0.00    -0.329 N 
ATOM     81 HD21 ASN A   4      53.319   4.340  27.103  0.00  0.00    +0.145 HD
ATOM     82 HD22 ASN A   4      54.364   5.127  25.864  0.00  0.00    +0.145 HD
ENDBRANCH  77  78
ENDBRANCH  50  77
ENDBRANCH  46  50
ENDBRANCH  45  47
BRANCH  45  83
ATOM     83  CB  ILE A   5      58.832  11.140  29.252  0.00  0.00    +0.027 C 
ATOM     84  CG2 ILE A   5      60.107  11.972  29.223  0.00  0.00    +0.002 C 
BRANCH  83  85
ATOM     85  CG1 ILE A   5      57.599  12.000  29.017  0.00  0.00    +0.002 C 
ATOM     86  CD1 ILE A   5      56.973  12.373  30.350  0.00  0.00    +0.000 C 
ENDBRANCH  83  85
ENDBRANCH  45  83
ENDBRANCH   1  45
TORSDOF 32
REMARK  Name = ../refined-set-2016/1a94/1a94_pocket.pdb
REMARK  233 active torsions:
REMARK  status: ('A' for Active; 'I' for Inactive)
REMARK    1  A    between atoms: _1  and  _3
REMARK    2  A    between atoms: _3  and  _4
REMARK    3  A    between atoms: _3  and  _6
REMARK    4  A    between atoms: _6  and  _7
REMARK    5  A    between atoms: _7  and  _8
REMARK    6  A    between atoms: _8  and  _9
REMARK    7  A    between atoms: _18  and  _20
REMARK    8  A    between atoms: _20  and  _21
REMARK    9  A    between atoms: _20  and  _23
REMARK   10  A    between atoms: _23  and  _24
REMARK   11  A    between atoms: _27  and  _29
REMARK   12  A    between atoms: _29  and  _30
REMARK   13  A    between atoms: _29  and  _32
REMARK   14  A    between atoms: _32  and  _33
REMARK   15  A    between atoms: _36  and  _38
REMARK   16  A    between atoms: _38  and  _39
REMARK   17  A    between atoms: _38  and  _41
REMARK   18  A    between atoms: _41  and  _42
REMARK   19  A    between atoms: _45  and  _47
REMARK   20  A    between atoms: _47  and  _48
REMARK   21  A    between atoms: _47  and  _50
REMARK   22  A    between atoms: _50  and  _51
REMARK   23  A    between atoms: _54  and  _56
REMARK   24  A    between atoms: _56  and  _57
REMARK   25  A    between atoms: _59  and  _61
REMARK   26  A    between atoms: _61  and  _62
REMARK   27  A    between atoms: _65  and  _67
REMARK   28  A    between atoms: _67  and  _68
REMARK   29  A    between atoms: _67  and  _70
REMARK   30  A    between atoms: _70  and  _71
REMARK   31  A    between atoms: _74  and  _76
REMARK   32  A    between atoms: _76  and  _77
REMARK   33  A    between atoms: _76  and  _79
REMARK   34  A    between atoms: _79  and  _80
REMARK   35  A    between atoms: _83  and  _85
REMARK   36  A    between atoms: _85  and  _86
REMARK   37  A    between atoms: _85  and  _88
REMARK   38  A    between atoms: _88  and  _89
REMARK   39  A    between atoms: _92  and  _94
REMARK   40  A    between atoms: _94  and  _95
REMARK   41  A    between atoms: _94  and  _97
REMARK   42  A    between atoms: _100  and  _102
REMARK   43  A    between atoms: _102  and  _103
REMARK   44  A    between atoms: _102  and  _105
REMARK   45  A    between atoms: _105  and  _106
REMARK   46  A    between atoms: _106  and  _107
REMARK   47  A    between atoms: _107  and  _108
REMARK   48  A    between atoms: _108  and  _109
REMARK   49  A    between atoms: _113  and  _115
REMARK   50  A    between atoms: _115  and  _116
REMARK   51  A    between atoms: _115  and  _118
REMARK   52  A    between atoms: _118  and  _119
REMARK   53  A    between atoms: _119  and  _120
REMARK   54  A    between atoms: _122  and  _124
REMARK   55  A    between atoms: _124  and  _125
REMARK   56  A    between atoms: _124  and  _127
REMARK   57  A    between atoms: _127  and  _128
REMARK   58  A    between atoms: _131  and  _133
REMARK   59  A    between atoms: _133  and  _134
REMARK   60  A    between atoms: _136  and  _138
REMARK   61  A    between atoms: _138  and  _139
REMARK   62  A    between atoms: _141  and  _143
REMARK   63  A    between atoms: _143  and  _144
REMARK   64  A    between atoms: _143  and  _146
REMARK   65  A    between atoms: _146  and  _147
REMARK   66  A    between atoms: _150  and  _152
REMARK   67  A    between atoms: _152  and  _153
REMARK   68  A    between atoms: _155  and  _157
REMARK   69  A    between atoms: _157  and  _158
REMARK   70  A    between atoms: _160  and  _162
REMARK   71  A    between atoms: _162  and  _163
REMARK   72  A    between atoms: _162  and  _165
REMARK   73  A    between atoms: _165  and  _166
REMARK   74  A    between atoms: _172  and  _174
REMARK   75  A    between atoms: _174  and  _175
REMARK   76  A    between atoms: _174  and  _177
REMARK   77  A    between atoms: _177  and  _178
REMARK   78  A    between atoms: _181  and  _183
REMARK   79  A    between atoms: _183  and  _184
REMARK   80  A    between atoms: _183  and  _186
REMARK   81  A    between atoms: _189  and  _191
REMARK   82  A    between atoms: _191  and  _192
REMARK   83  A    between atoms: _191  and  _194
REMARK   84  A    between atoms: _194  and  _195
REMARK   85  A    between atoms: _195  and  _196
REMARK   86  A    between atoms: _201  and  _203
REMARK   87  A    between atoms: _203  and  _204
REMARK   88  A    between atoms: _203  and  _206
REMARK   89  A    between atoms: _206  and  _207
REMARK   90  A    between atoms: _210  and  _212
REMARK   91  A    between atoms: _212  and  _213
REMARK   92  A    between atoms: _212  and  _215
REMARK   93  A    between atoms: _215  and  _216
REMARK   94  A    between atoms: _219  and  _221
REMARK   95  A    between atoms: _221  and  _222
REMARK   96  A    between atoms: _221  and  _224
REMARK   97  A    between atoms: _224  and  _225
REMARK   98  A    between atoms: _229  and  _230
REMARK   99  A    between atoms: _235  and  _237
REMARK  100  A    between atoms: _237  and  _238
REMARK  101  A    between atoms: _237  and  _240
REMARK  102  A    between atoms: _243  and  _245
REMARK  103  A    between atoms: _245  and  _246
REMARK  104  A    between atoms: _245  and  _248
REMARK  105  A    between atoms: _248  and  _249
REMARK  106  A    between atoms: _254  and  _256
REMARK  107  A    between atoms: _256  and  _257
REMARK  108  A    between atoms: _256  and  _259
REMARK  109  A    between atoms: _259  and  _260
REMARK  110  A    between atoms: _263  and  _265
REMARK  111  A    between atoms: _265  and  _266
REMARK  112  A    between atoms: _265  and  _268
REMARK  113  A    between atoms: _268  and  _269
REMARK  114  A    between atoms: _272  and  _274
REMARK  115  A    between atoms: _274  and  _275
REMARK  116  A    between atoms: _277  and  _279
REMARK  117  A    between atoms: _279  and  _280
REMARK  118  A    between atoms: _279  and  _282
REMARK  119  A    between atoms: _282  and  _283
REMARK  120  A    between atoms: _283  and  _284
REMARK  121  A    between atoms: _284  and  _285
REMARK  122  A    between atoms: _294  and  _296
REMARK  123  A    between atoms: _296  and  _297
REMARK  124  A    between atoms: _296  and  _299
REMARK  125  A    between atoms: _299  and  _300
REMARK  126  A    between atoms: _305  and  _307
REMARK  127  A    between atoms: _307  and  _308
REMARK  128  A    between atoms: _307  and  _310
REMARK  129  A    between atoms: _310  and  _311
REMARK  130  A    between atoms: _311  and  _312
REMARK  131  A    between atoms: _312  and  _313
REMARK  132  A    between atoms: _322  and  _324
REMARK  133  A    between atoms: _324  and  _325
REMARK  134  A    between atoms: _324  and  _327
REMARK  135  A    between atoms: _327  and  _328
REMARK  136  A    between atoms: _331  and  _333
REMARK  137  A    between atoms: _333  and  _334
REMARK  138  A    between atoms: _333  and  _336
REMARK  139  A    between atoms: _336  and  _337
REMARK  140  A    between atoms: _340  and  _342
REMARK  141  A    between atoms: _342  and  _343
REMARK  142  A    between atoms: _342  and  _345
REMARK  143  A    between atoms: _345  and  _346
REMARK  144  A    between atoms: _349  and  _351
REMARK  145  A    between atoms: _351  and  _352
REMARK  146  A    between atoms: _354  and  _356
REMARK  147  A    between atoms: _356  and  _357
REMARK  148  A    between atoms: _360  and  _362
REMARK  149  A    between atoms: _362  and  _363
REMARK  150  A    between atoms: _362  and  _365
REMARK  151  A    between atoms: _365  and  _366
REMARK  152  A    between atoms: _369  and  _371
REMARK  153  A    between atoms: _371  and  _372
REMARK  154  A    between atoms: _371  and  _374
REMARK  155  A    between atoms: _374  and  _375
REMARK  156  A    between atoms: _378  and  _380
REMARK  157  A    between atoms: _380  and  _381
REMARK  158  A    between atoms: _380  and  _383
REMARK  159  A    between atoms: _383  and  _384
REMARK  160  A    between atoms: _387  and  _389
REMARK  161  A    between atoms: _389  and  _390
REMARK  162  A    between atoms: _389  and  _392
REMARK  163  A    between atoms: _395  and  _397
REMARK  164  A    between atoms: _397  and  _398
REMARK  165  A    between atoms: _397  and  _400
REMARK  166  A    between atoms: _400  and  _401
REMARK  167  A    between atoms: _401  and  _402
REMARK  168  A    between atoms: _402  and  _403
REMARK  169  A    between atoms: _403  and  _404
REMARK  170  A    between atoms: _408  and  _410
REMARK  171  A    between atoms: _410  and  _411
REMARK  172  A    between atoms: _410  and  _413
REMARK  173  A    between atoms: _413  and  _414
REMARK  174  A    between atoms: _414  and  _415
REMARK  175  A    between atoms: _417  and  _419
REMARK  176  A    between atoms: _419  and  _420
REMARK  177  A    between atoms: _419  and  _422
REMARK  178  A    between atoms: _422  and  _423
REMARK  179  A    between atoms: _426  and  _428
REMARK  180  A    between atoms: _428  and  _429
REMARK  181  A    between atoms: _431  and  _433
REMARK  182  A    between atoms: _433  and  _434
REMARK  183  A    between atoms: _436  and  _438
REMARK  184  A    between atoms: _438  and  _439
REMARK  185  A    between atoms: _438  and  _441
REMARK  186  A    between atoms: _441  and  _442
REMARK  187  A    between atoms: _445  and  _447
REMARK  188  A    between atoms: _447  and  _448
REMARK  189  A    between atoms: _450  and  _452
REMARK  190  A    between atoms: _452  and  _453
REMARK  191  A    between atoms: _455  and  _457
REMARK  192  A    between atoms: _457  and  _458
REMARK  193  A    between atoms: _457  and  _460
REMARK  194  A    between atoms: _460  and  _461
REMARK  195  A    between atoms: _467  and  _469
REMARK  196  A    between atoms: _469  and  _470
REMARK  197  A    between atoms: _469  and  _472
REMARK  198  A    between atoms: _472  and  _473
REMARK  199  A    between atoms: _476  and  _478
REMARK  200  A    between atoms: _478  and  _479
REMARK  201  A    between atoms: _478  and  _481
REMARK  202  A    between atoms: _484  and  _486
REMARK  203  A    between atoms: _486  and  _487
REMARK  204  A    between atoms: _486  and  _489
REMARK  205  A    between atoms: _489  and  _490
REMARK  206  A    between atoms: _493  and  _495
REMARK  207  A    between atoms: _495  and  _496
REMARK  208  A    between atoms: _495  and  _498
REMARK  209  A    between atoms: _498  and  _499
REMARK  210  A    between atoms: _503  and  _504
REMARK  211  A    between atoms: _509  and  _511
REMARK  212  A    between atoms: _511  and  _512
REMARK  213  A    between atoms: _511  and  _514
REMARK  214  A    between atoms: _517  and  _519
REMARK  215  A    between atoms: _519  and  _520
REMARK  216  A    between atoms: _519  and  _522
REMARK  217  A    between atoms: _522  and  _523
REMARK  218  A    between atoms: _528  and  _530
REMARK  219  A    between atoms: _530  and  _531
REMARK  220  A    between atoms: _530  and  _533
REMARK  221  A    between atoms: _533  and  _534
REMARK  222  A    between atoms: _537  and  _539
REMARK  223  A    between atoms: _539  and  _540
REMARK  224  A    between atoms: _539  and  _542
REMARK  225  A    between atoms: _542  and  _543
REMARK  226  A    between atoms: _546  and  _548
REMARK  227  A    between atoms: _548  and  _549
REMARK  228  A    between atoms: _551  and  _553
REMARK  229  A    between atoms: _553  and  _554
REMARK  230  A    between atoms: _553  and  _556
REMARK  231  A    between atoms: _556  and  _557
REMARK  232  A    between atoms: _557  and  _558
REMARK  233  A    between atoms: _558  and  _559
REMARK                            x       y       z     vdW  Elec       q    Type
REMARK                         _______ _______ _______ _____ _____    ______ ____
ROOT
ATOM      1  NE  ARG A   1      68.821  19.341  35.323  0.00  0.00    -0.265 N 
ATOM      2  CZ  ARG A   1      67.951  19.407  36.329  0.00  0.00    +0.342 C 
ATOM      3  NH2 ARG A   1      68.164  18.691  37.419  0.00  0.00    -0.292 N 
ATOM      4 HH21 ARG A   1      67.491  18.736  38.210  0.00  0.00    +0.255 HD
ATOM      5 HH22 ARG A   1      69.005  18.083  37.486  0.00  0.00    +0.255 HD
ATOM      6  NH1 ARG A   1      66.882  20.203  36.272  0.00  0.00    -0.292 N 
ATOM      7 HH11 ARG A   1      66.216  20.238  37.070  0.00  0.00    +0.255 HD
ATOM      8 HH12 ARG A   1      66.714  20.789  35.429  0.00  0.00    +0.255 HD
ATOM      9  HE  ARG A   1      69.630  18.696  35.431  0.00  0.00    +0.259 HD
ENDROOT
BRANCH   1  10
ATOM     10  CD  ARG A   1      68.730  20.100  34.085  0.00  0.00    +0.174 C 
BRANCH  10  11
ATOM     11  CG  ARG A   1      69.620  19.529  33.007  0.00  0.00    +0.045 C 
BRANCH  11  12
ATOM     12  CB  ARG A   1      69.840  20.510  31.873  0.00  0.00    +0.029 C 
BRANCH  12  13
ATOM     13  CA  ARG A   1      70.485  19.850  30.663  0.00  0.00    +0.133 C 
BRANCH  13  14
ATOM     14  N   ARG A   1      71.732  19.202  31.068  0.00  0.00    -0.239 NA
ATOM     15  H   ARG A   1      72.030  19.243  32.064  0.00  0.00    +0.142 HD
ENDBRANCH  13  14
BRANCH  13  16
ATOM     16  C   ARG A   1      70.789  20.881  29.591  0.00  0.00    +0.224 C 
ATOM     17  O   ARG A   1      71.708  21.673  29.761  0.00  0.00    -0.287 OA
ENDBRANCH  13  16
ENDBRANCH  12  13
ENDBRANCH  11  12
ENDBRANCH  10  11
ENDBRANCH   1  10
TORSDOF 6
REMARK  Name = ../refined-set-2016/1a94/1a94_pocket.pdb
REMARK  233 active torsions:
REMARK  status: ('A' for Active; 'I' for Inactive)
REMARK    1  A    between atoms: _1  and  _3
REMARK    2  A    between atoms: _3  and  _4
REMARK    3  A    between atoms: _3  and  _6
REMARK    4  A    between atoms: _6  and  _7
REMARK    5  A    between atoms: _7  and  _8
REMARK    6  A    between atoms: _8  and  _9
REMARK    7  A    between atoms: _18  and  _20
REMARK    8  A    between atoms: _20  and  _21
REMARK    9  A    between atoms: _20  and  _23
REMARK   10  A    between atoms: _23  and  _24
REMARK   11  A    between atoms: _27  and  _29
REMARK   12  A    between atoms: _29  and  _30
REMARK   13  A    between atoms: _29  and  _32
REMARK   14  A    between atoms: _32  and  _33
REMARK   15  A    between atoms: _36  and  _38
REMARK   16  A    between atoms: _38  and  _39
REMARK   17  A    between atoms: _38  and  _41
REMARK   18  A    between atoms: _41  and  _42
REMARK   19  A    between atoms: _45  and  _47
REMARK   20  A    between atoms: _47  and  _48
REMARK   21  A    between atoms: _47  and  _50
REMARK   22  A    between atoms: _50  and  _51
REMARK   23  A    between atoms: _54  and  _56
REMARK   24  A    between atoms: _56  and  _57
REMARK   25  A    between atoms: _59  and  _61
REMARK   26  A    between atoms: _61  and  _62
REMARK   27  A    between atoms: _65  and  _67
REMARK   28  A    between atoms: _67  and  _68
REMARK   29  A    between atoms: _67  and  _70
REMARK   30  A    between atoms: _70  and  _71
REMARK   31  A    between atoms: _74  and  _76
REMARK   32  A    between atoms: _76  and  _77
REMARK   33  A    between atoms: _76  and  _79
REMARK   34  A    between atoms: _79  and  _80
REMARK   35  A    between atoms: _83  and  _85
REMARK   36  A    between atoms: _85  and  _86
REMARK   37  A    between atoms: _85  and  _88
REMARK   38  A    between atoms: _88  and  _89
REMARK   39  A    between atoms: _92  and  _94
REMARK   40  A    between atoms: _94  and  _95
REMARK   41  A    between atoms: _94  and  _97
REMARK   42  A    between atoms: _100  and  _102
REMARK   43  A    between atoms: _102  and  _103
REMARK   44  A    between atoms: _102  and  _105
REMARK   45  A    between atoms: _105  and  _106
REMARK   46  A    between atoms: _106  and  _107
REMARK   47  A    between atoms: _107  and  _108
REMARK   48  A    between atoms: _108  and  _109
REMARK   49  A    between atoms: _113  and  _115
REMARK   50  A    between atoms: _115  and  _116
REMARK   51  A    between atoms: _115  and  _118
REMARK   52  A    between atoms: _118  and  _119
REMARK   53  A    between atoms: _119  and  _120
REMARK   54  A    between atoms: _122  and  _124
REMARK   55  A    between atoms: _124  and  _125
REMARK   56  A    between atoms: _124  and  _127
REMARK   57  A    between atoms: _127  and  _128
REMARK   58  A    between atoms: _131  and  _133
REMARK   59  A    between atoms: _133  and  _134
REMARK   60  A    between atoms: _136  and  _138
REMARK   61  A    between atoms: _138  and  _139
REMARK   62  A    between atoms: _141  and  _143
REMARK   63  A    between atoms: _143  and  _144
REMARK   64  A    between atoms: _143  and  _146
REMARK   65  A    between atoms: _146  and  _147
REMARK   66  A    between atoms: _150  and  _152
REMARK   67  A    between atoms: _152  and  _153
REMARK   68  A    between atoms: _155  and  _157
REMARK   69  A    between atoms: _157  and  _158
REMARK   70  A    between atoms: _160  and  _162
REMARK   71  A    between atoms: _162  and  _163
REMARK   72  A    between atoms: _162  and  _165
REMARK   73  A    between atoms: _165  and  _166
REMARK   74  A    between atoms: _172  and  _174
REMARK   75  A    between atoms: _174  and  _175
REMARK   76  A    between atoms: _174  and  _177
REMARK   77  A    between atoms: _177  and  _178
REMARK   78  A    between atoms: _181  and  _183
REMARK   79  A    between atoms: _183  and  _184
REMARK   80  A    between atoms: _183  and  _186
REMARK   81  A    between atoms: _189  and  _191
REMARK   82  A    between atoms: _191  and  _192
REMARK   83  A    between atoms: _191  and  _194
REMARK   84  A    between atoms: _194  and  _195
REMARK   85  A    between atoms: _195  and  _196
REMARK   86  A    between atoms: _201  and  _203
REMARK   87  A    between atoms: _203  and  _204
REMARK   88  A    between atoms: _203  and  _206
REMARK   89  A    between atoms: _206  and  _207
REMARK   90  A    between atoms: _210  and  _212
REMARK   91  A    between atoms: _212  and  _213
REMARK   92  A    between atoms: _212  and  _215
REMARK   93  A    between atoms: _215  and  _216
REMARK   94  A    between atoms: _219  and  _221
REMARK   95  A    between atoms: _221  and  _222
REMARK   96  A    between atoms: _221  and  _224
REMARK   97  A    between atoms: _224  and  _225
REMARK   98  A    between atoms: _229  and  _230
REMARK   99  A    between atoms: _235  and  _237
REMARK  100  A    between atoms: _237  and  _238
REMARK  101  A    between atoms: _237  and  _240
REMARK  102  A    between atoms: _243  and  _245
REMARK  103  A    between atoms: _245  and  _246
REMARK  104  A    between atoms: _245  and  _248
REMARK  105  A    between atoms: _248  and  _249
REMARK  106  A    between atoms: _254  and  _256
REMARK  107  A    between atoms: _256  and  _257
REMARK  108  A    between atoms: _256  and  _259
REMARK  109  A    between atoms: _259  and  _260
REMARK  110  A    between atoms: _263  and  _265
REMARK  111  A    between atoms: _265  and  _266
REMARK  112  A    between atoms: _265  and  _268
REMARK  113  A    between atoms: _268  and  _269
REMARK  114  A    between atoms: _272  and  _274
REMARK  115  A    between atoms: _274  and  _275
REMARK  116  A    between atoms: _277  and  _279
REMARK  117  A    between atoms: _279  and  _280
REMARK  118  A    between atoms: _279  and  _282
REMARK  119  A    between atoms: _282  and  _283
REMARK  120  A    between atoms: _283  and  _284
REMARK  121  A    between atoms: _284  and  _285
REMARK  122  A    between atoms: _294  and  _296
REMARK  123  A    between atoms: _296  and  _297
REMARK  124  A    between atoms: _296  and  _299
REMARK  125  A    between atoms: _299  and  _300
REMARK  126  A    between atoms: _305  and  _307
REMARK  127  A    between atoms: _307  and  _308
REMARK  128  A    between atoms: _307  and  _310
REMARK  129  A    between atoms: _310  and  _311
REMARK  130  A    between atoms: _311  and  _312
REMARK  131  A    between atoms: _312  and  _313
REMARK  132  A    between atoms: _322  and  _324
REMARK  133  A    between atoms: _324  and  _325
REMARK  134  A    between atoms: _324  and  _327
REMARK  135  A    between atoms: _327  and  _328
REMARK  136  A    between atoms: _331  and  _333
REMARK  137  A    between atoms: _333  and  _334
REMARK  138  A    between atoms: _333  and  _336
REMARK  139  A    between atoms: _336  and  _337
REMARK  140  A    between atoms: _340  and  _342
REMARK  141  A    between atoms: _342  and  _343
REMARK  142  A    between atoms: _342  and  _345
REMARK  143  A    between atoms: _345  and  _346
REMARK  144  A    between atoms: _349  and  _351
REMARK  145  A    between atoms: _351  and  _352
REMARK  146  A    between atoms: _354  and  _356
REMARK  147  A    between atoms: _356  and  _357
REMARK  148  A    between atoms: _360  and  _362
REMARK  149  A    between atoms: _362  and  _363
REMARK  150  A    between atoms: _362  and  _365
REMARK  151  A    between atoms: _365  and  _366
REMARK  152  A    between atoms: _369  and  _371
REMARK  153  A    between atoms: _371  and  _372
REMARK  154  A    between atoms: _371  and  _374
REMARK  155  A    between atoms: _374  and  _375
REMARK  156  A    between atoms: _378  and  _380
REMARK  157  A    between atoms: _380  and  _381
REMARK  158  A    between atoms: _380  and  _383
REMARK  159  A    between atoms: _383  and  _384
REMARK  160  A    between atoms: _387  and  _389
REMARK  161  A    between atoms: _389  and  _390
REMARK  162  A    between atoms: _389  and  _392
REMARK  163  A    between atoms: _395  and  _397
REMARK  164  A    between atoms: _397  and  _398
REMARK  165  A    between atoms: _397  and  _400
REMARK  166  A    between atoms: _400  and  _401
REMARK  167  A    between atoms: _401  and  _402
REMARK  168  A    between atoms: _402  and  _403
REMARK  169  A    between atoms: _403  and  _404
REMARK  170  A    between atoms: _408  and  _410
REMARK  171  A    between atoms: _410  and  _411
REMARK  172  A    between atoms: _410  and  _413
REMARK  173  A    between atoms: _413  and  _414
REMARK  174  A    between atoms: _414  and  _415
REMARK  175  A    between atoms: _417  and  _419
REMARK  176  A    between atoms: _419  and  _420
REMARK  177  A    between atoms: _419  and  _422
REMARK  178  A    between atoms: _422  and  _423
REMARK  179  A    between atoms: _426  and  _428
REMARK  180  A    between atoms: _428  and  _429
REMARK  181  A    between atoms: _431  and  _433
REMARK  182  A    between atoms: _433  and  _434
REMARK  183  A    between atoms: _436  and  _438
REMARK  184  A    between atoms: _438  and  _439
REMARK  185  A    between atoms: _438  and  _441
REMARK  186  A    between atoms: _441  and  _442
REMARK  187  A    between atoms: _445  and  _447
REMARK  188  A    between atoms: _447  and  _448
REMARK  189  A    between atoms: _450  and  _452
REMARK  190  A    between atoms: _452  and  _453
REMARK  191  A    between atoms: _455  and  _457
REMARK  192  A    between atoms: _457  and  _458
REMARK  193  A    between atoms: _457  and  _460
REMARK  194  A    between atoms: _460  and  _461
REMARK  195  A    between atoms: _467  and  _469
REMARK  196  A    between atoms: _469  and  _470
REMARK  197  A    between atoms: _469  and  _472
REMARK  198  A    between atoms: _472  and  _473
REMARK  199  A    between atoms: _476  and  _478
REMARK  200  A    between atoms: _478  and  _479
REMARK  201  A    between atoms: _478  and  _481
REMARK  202  A    between atoms: _484  and  _486
REMARK  203  A    between atoms: _486  and  _487
REMARK  204  A    between atoms: _486  and  _489
REMARK  205  A    between atoms: _489  and  _490
REMARK  206  A    between atoms: _493  and  _495
REMARK  207  A    between atoms: _495  and  _496
REMARK  208  A    between atoms: _495  and  _498
REMARK  209  A    between atoms: _498  and  _499
REMARK  210  A    between atoms: _503  and  _504
REMARK  211  A    between atoms: _509  and  _511
REMARK  212  A    between atoms: _511  and  _512
REMARK  213  A    between atoms: _511  and  _514
REMARK  214  A    between atoms: _517  and  _519
REMARK  215  A    between atoms: _519  and  _520
REMARK  216  A    between atoms: _519  and  _522
REMARK  217  A    between atoms: _522  and  _523
REMARK  218  A    between atoms: _528  and  _530
REMARK  219  A    between atoms: _530  and  _531
REMARK  220  A    between atoms: _530  and  _533
REMARK  221  A    between atoms: _533  and  _534
REMARK  222  A    between atoms: _537  and  _539
REMARK  223  A    between atoms: _539  and  _540
REMARK  224  A    between atoms: _539  and  _542
REMARK  225  A    between atoms: _542  and  _543
REMARK  226  A    between atoms: _546  and  _548
REMARK  227  A    between atoms: _548  and  _549
REMARK  228  A    between atoms: _551  and  _553
REMARK  229  A    between atoms: _553  and  _554
REMARK  230  A    between atoms: _553  and  _556
REMARK  231  A    between atoms: _556  and  _557
REMARK  232  A    between atoms: _557  and  _558
REMARK  233  A    between atoms: _558  and  _559
REMARK                            x       y       z     vdW  Elec       q    Type
REMARK                         _______ _______ _______ _____ _____    ______ ____
ROOT
ATOM      1  CA  LEU A   1      65.896  24.938  29.153  0.00  0.00    +0.133 C 
ENDROOT
BRANCH   1   2
ATOM      2  N   LEU A   1      65.635  26.318  29.577  0.00  0.00    -0.239 NA
ATOM      3  H   LEU A   1      64.758  26.512  30.101  0.00  0.00    +0.142 HD
ENDBRANCH   1   2
BRANCH   1   4
ATOM      4  C   LEU A   1      65.145  24.611  27.830  0.00  0.00    +0.224 C 
ATOM      5  O   LEU A   1      63.961  24.907  27.680  0.00  0.00    -0.287 OA
ENDBRANCH   1   4
BRANCH   1   6
ATOM      6  CB  LEU A   1      65.421  24.022  30.287  0.00  0.00    +0.025 C 
BRANCH   6   7
ATOM      7  CG  LEU A   1      65.371  22.522  30.089  0.00  0.00    +0.002 C 
ATOM      8  CD2 LEU A   1      64.165  21.957  30.794  0.00  0.00    +0.000 C 
ATOM      9  CD1 LEU A   1      66.612  21.972  30.659  0.00  0.00    +0.000 C 
ENDBRANCH   6   7
ENDBRANCH   1   6
TORSDOF 4
REMARK  Name = ../refined-set-2016/1a94/1a94_pocket.pdb
REMARK  233 active torsions:
REMARK  status: ('A' for Active; 'I' for Inactive)
REMARK    1  A    between atoms: _1  and  _3
REMARK    2  A    between atoms: _3  and  _4
REMARK    3  A    between atoms: _3  and  _6
REMARK    4  A    between atoms: _6  and  _7
REMARK    5  A    between atoms: _7  and  _8
REMARK    6  A    between atoms: _8  and  _9
REMARK    7  A    between atoms: _18  and  _20
REMARK    8  A    between atoms: _20  and  _21
REMARK    9  A    between atoms: _20  and  _23
REMARK   10  A    between atoms: _23  and  _24
REMARK   11  A    between atoms: _27  and  _29
REMARK   12  A    between atoms: _29  and  _30
REMARK   13  A    between atoms: _29  and  _32
REMARK   14  A    between atoms: _32  and  _33
REMARK   15  A    between atoms: _36  and  _38
REMARK   16  A    between atoms: _38  and  _39
REMARK   17  A    between atoms: _38  and  _41
REMARK   18  A    between atoms: _41  and  _42
REMARK   19  A    between atoms: _45  and  _47
REMARK   20  A    between atoms: _47  and  _48
REMARK   21  A    between atoms: _47  and  _50
REMARK   22  A    between atoms: _50  and  _51
REMARK   23  A    between atoms: _54  and  _56
REMARK   24  A    between atoms: _56  and  _57
REMARK   25  A    between atoms: _59  and  _61
REMARK   26  A    between atoms: _61  and  _62
REMARK   27  A    between atoms: _65  and  _67
REMARK   28  A    between atoms: _67  and  _68
REMARK   29  A    between atoms: _67  and  _70
REMARK   30  A    between atoms: _70  and  _71
REMARK   31  A    between atoms: _74  and  _76
REMARK   32  A    between atoms: _76  and  _77
REMARK   33  A    between atoms: _76  and  _79
REMARK   34  A    between atoms: _79  and  _80
REMARK   35  A    between atoms: _83  and  _85
REMARK   36  A    between atoms: _85  and  _86
REMARK   37  A    between atoms: _85  and  _88
REMARK   38  A    between atoms: _88  and  _89
REMARK   39  A    between atoms: _92  and  _94
REMARK   40  A    between atoms: _94  and  _95
REMARK   41  A    between atoms: _94  and  _97
REMARK   42  A    between atoms: _100  and  _102
REMARK   43  A    between atoms: _102  and  _103
REMARK   44  A    between atoms: _102  and  _105
REMARK   45  A    between atoms: _105  and  _106
REMARK   46  A    between atoms: _106  and  _107
REMARK   47  A    between atoms: _107  and  _108
REMARK   48  A    between atoms: _108  and  _109
REMARK   49  A    between atoms: _113  and  _115
REMARK   50  A    between atoms: _115  and  _116
REMARK   51  A    between atoms: _115  and  _118
REMARK   52  A    between atoms: _118  and  _119
REMARK   53  A    between atoms: _119  and  _120
REMARK   54  A    between atoms: _122  and  _124
REMARK   55  A    between atoms: _124  and  _125
REMARK   56  A    between atoms: _124  and  _127
REMARK   57  A    between atoms: _127  and  _128
REMARK   58  A    between atoms: _131  and  _133
REMARK   59  A    between atoms: _133  and  _134
REMARK   60  A    between atoms: _136  and  _138
REMARK   61  A    between atoms: _138  and  _139
REMARK   62  A    between atoms: _141  and  _143
REMARK   63  A    between atoms: _143  and  _144
REMARK   64  A    between atoms: _143  and  _146
REMARK   65  A    between atoms: _146  and  _147
REMARK   66  A    between atoms: _150  and  _152
REMARK   67  A    between atoms: _152  and  _153
REMARK   68  A    between atoms: _155  and  _157
REMARK   69  A    between atoms: _157  and  _158
REMARK   70  A    between atoms: _160  and  _162
REMARK   71  A    between atoms: _162  and  _163
REMARK   72  A    between atoms: _162  and  _165
REMARK   73  A    between atoms: _165  and  _166
REMARK   74  A    between atoms: _172  and  _174
REMARK   75  A    between atoms: _174  and  _175
REMARK   76  A    between atoms: _174  and  _177
REMARK   77  A    between atoms: _177  and  _178
REMARK   78  A    between atoms: _181  and  _183
REMARK   79  A    between atoms: _183  and  _184
REMARK   80  A    between atoms: _183  and  _186
REMARK   81  A    between atoms: _189  and  _191
REMARK   82  A    between atoms: _191  and  _192
REMARK   83  A    between atoms: _191  and  _194
REMARK   84  A    between atoms: _194  and  _195
REMARK   85  A    between atoms: _195  and  _196
REMARK   86  A    between atoms: _201  and  _203
REMARK   87  A    between atoms: _203  and  _204
REMARK   88  A    between atoms: _203  and  _206
REMARK   89  A    between atoms: _206  and  _207
REMARK   90  A    between atoms: _210  and  _212
REMARK   91  A    between atoms: _212  and  _213
REMARK   92  A    between atoms: _212  and  _215
REMARK   93  A    between atoms: _215  and  _216
REMARK   94  A    between atoms: _219  and  _221
REMARK   95  A    between atoms: _221  and  _222
REMARK   96  A    between atoms: _221  and  _224
REMARK   97  A    between atoms: _224  and  _225
REMARK   98  A    between atoms: _229  and  _230
REMARK   99  A    between atoms: _235  and  _237
REMARK  100  A    between atoms: _237  and  _238
REMARK  101  A    between atoms: _237  and  _240
REMARK  102  A    between atoms: _243  and  _245
REMARK  103  A    between atoms: _245  and  _246
REMARK  104  A    between atoms: _245  and  _248
REMARK  105  A    between atoms: _248  and  _249
REMARK  106  A    between atoms: _254  and  _256
REMARK  107  A    between atoms: _256  and  _257
REMARK  108  A    between atoms: _256  and  _259
REMARK  109  A    between atoms: _259  and  _260
REMARK  110  A    between atoms: _263  and  _265
REMARK  111  A    between atoms: _265  and  _266
REMARK  112  A    between atoms: _265  and  _268
REMARK  113  A    between atoms: _268  and  _269
REMARK  114  A    between atoms: _272  and  _274
REMARK  115  A    between atoms: _274  and  _275
REMARK  116  A    between atoms: _277  and  _279
REMARK  117  A    between atoms: _279  and  _280
REMARK  118  A    between atoms: _279  and  _282
REMARK  119  A    between atoms: _282  and  _283
REMARK  120  A    between atoms: _283  and  _284
REMARK  121  A    between atoms: _284  and  _285
REMARK  122  A    between atoms: _294  and  _296
REMARK  123  A    between atoms: _296  and  _297
REMARK  124  A    between atoms: _296  and  _299
REMARK  125  A    between atoms: _299  and  _300
REMARK  126  A    between atoms: _305  and  _307
REMARK  127  A    between atoms: _307  and  _308
REMARK  128  A    between atoms: _307  and  _310
REMARK  129  A    between atoms: _310  and  _311
REMARK  130  A    between atoms: _311  and  _312
REMARK  131  A    between atoms: _312  and  _313
REMARK  132  A    between atoms: _322  and  _324
REMARK  133  A    between atoms: _324  and  _325
REMARK  134  A    between atoms: _324  and  _327
REMARK  135  A    between atoms: _327  and  _328
REMARK  136  A    between atoms: _331  and  _333
REMARK  137  A    between atoms: _333  and  _334
REMARK  138  A    between atoms: _333  and  _336
REMARK  139  A    between atoms: _336  and  _337
REMARK  140  A    between atoms: _340  and  _342
REMARK  141  A    between atoms: _342  and  _343
REMARK  142  A    between atoms: _342  and  _345
REMARK  143  A    between atoms: _345  and  _346
REMARK  144  A    between atoms: _349  and  _351
REMARK  145  A    between atoms: _351  and  _352
REMARK  146  A    between atoms: _354  and  _356
REMARK  147  A    between atoms: _356  and  _357
REMARK  148  A    between atoms: _360  and  _362
REMARK  149  A    between atoms: _362  and  _363
REMARK  150  A    between atoms: _362  and  _365
REMARK  151  A    between atoms: _365  and  _366
REMARK  152  A    between atoms: _369  and  _371
REMARK  153  A    between atoms: _371  and  _372
REMARK  154  A    between atoms: _371  and  _374
REMARK  155  A    between atoms: _374  and  _375
REMARK  156  A    between atoms: _378  and  _380
REMARK  157  A    between atoms: _380  and  _381
REMARK  158  A    between atoms: _380  and  _383
REMARK  159  A    between atoms: _383  and  _384
REMARK  160  A    between atoms: _387  and  _389
REMARK  161  A    between atoms: _389  and  _390
REMARK  162  A    between atoms: _389  and  _392
REMARK  163  A    between atoms: _395  and  _397
REMARK  164  A    between atoms: _397  and  _398
REMARK  165  A    between atoms: _397  and  _400
REMARK  166  A    between atoms: _400  and  _401
REMARK  167  A    between atoms: _401  and  _402
REMARK  168  A    between atoms: _402  and  _403
REMARK  169  A    between atoms: _403  and  _404
REMARK  170  A    between atoms: _408  and  _410
REMARK  171  A    between atoms: _410  and  _411
REMARK  172  A    between atoms: _410  and  _413
REMARK  173  A    between atoms: _413  and  _414
REMARK  174  A    between atoms: _414  and  _415
REMARK  175  A    between atoms: _417  and  _419
REMARK  176  A    between atoms: _419  and  _420
REMARK  177  A    between atoms: _419  and  _422
REMARK  178  A    between atoms: _422  and  _423
REMARK  179  A    between atoms: _426  and  _428
REMARK  180  A    between atoms: _428  and  _429
REMARK  181  A    between atoms: _431  and  _433
REMARK  182  A    between atoms: _433  and  _434
REMARK  183  A    between atoms: _436  and  _438
REMARK  184  A    between atoms: _438  and  _439
REMARK  185  A    between atoms: _438  and  _441
REMARK  186  A    between atoms: _441  and  _442
REMARK  187  A    between atoms: _445  and  _447
REMARK  188  A    between atoms: _447  and  _448
REMARK  189  A    between atoms: _450  and  _452
REMARK  190  A    between atoms: _452  and  _453
REMARK  191  A    between atoms: _455  and  _457
REMARK  192  A    between atoms: _457  and  _458
REMARK  193  A    between atoms: _457  and  _460
REMARK  194  A    between atoms: _460  and  _461
REMARK  195  A    between atoms: _467  and  _469
REMARK  196  A    between atoms: _469  and  _470
REMARK  197  A    between atoms: _469  and  _472
REMARK  198  A    between atoms: _472  and  _473
REMARK  199  A    between atoms: _476  and  _478
REMARK  200  A    between atoms: _478  and  _479
REMARK  201  A    between atoms: _478  and  _481
REMARK  202  A    between atoms: _484  and  _486
REMARK  203  A    between atoms: _486  and  _487
REMARK  204  A    between atoms: _486  and  _489
REMARK  205  A    between atoms: _489  and  _490
REMARK  206  A    between atoms: _493  and  _495
REMARK  207  A    between atoms: _495  and  _496
REMARK  208  A    between atoms: _495  and  _498
REMARK  209  A    between atoms: _498  and  _499
REMARK  210  A    between atoms: _503  and  _504
REMARK  211  A    between atoms: _509  and  _511
REMARK  212  A    between atoms: _511  and  _512
REMARK  213  A    between atoms: _511  and  _514
REMARK  214  A    between atoms: _517  and  _519
REMARK  215  A    between atoms: _519  and  _520
REMARK  216  A    between atoms: _519  and  _522
REMARK  217  A    between atoms: _522  and  _523
REMARK  218  A    between atoms: _528  and  _530
REMARK  219  A    between atoms: _530  and  _531
REMARK  220  A    between atoms: _530  and  _533
REMARK  221  A    between atoms: _533  and  _534
REMARK  222  A    between atoms: _537  and  _539
REMARK  223  A    between atoms: _539  and  _540
REMARK  224  A    between atoms: _539  and  _542
REMARK  225  A    between atoms: _542  and  _543
REMARK  226  A    between atoms: _546  and  _548
REMARK  227  A    between atoms: _548  and  _549
REMARK  228  A    between atoms: _551  and  _553
REMARK  229  A    between atoms: _553  and  _554
REMARK  230  A    between atoms: _553  and  _556
REMARK  231  A    between atoms: _556  and  _557
REMARK  232  A    between atoms: _557  and  _558
REMARK  233  A    between atoms: _558  and  _559
REMARK                            x       y       z     vdW  Elec       q    Type
REMARK                         _______ _______ _______ _____ _____    ______ ____
ROOT
ATOM      1  CA  ASP A   5      54.294  22.085  23.663  0.00  0.00    +0.160 C 
ENDROOT
BRANCH   1   2
ATOM      2  C   ASP A   5      54.374  23.585  23.738  0.00  0.00    +0.241 C 
ATOM      3  N   ASP A   6      54.347  24.071  24.979  0.00  0.00    -0.297 N 
ATOM      4  H   ASP A   6      54.335  23.394  25.768  0.00  0.00    +0.150 HD
ATOM      5  O   ASP A   5      54.451  24.275  22.711  0.00  0.00    -0.273 OA
BRANCH   3   6
ATOM      6  CA  ASP A   6      54.333  25.492  25.297  0.00  0.00    +0.160 C 
BRANCH   6   7
ATOM      7  C   ASP A   6      55.614  25.990  25.899  0.00  0.00    +0.241 C 
ATOM      8  O   ASP A   6      56.449  25.209  26.353  0.00  0.00    -0.273 OA
ATOM      9  N   THR A   7      55.716  27.315  25.956  0.00  0.00    -0.295 N 
ATOM     10  H   THR A   7      54.943  27.885  25.557  0.00  0.00    +0.150 HD
BRANCH   9  11
ATOM     11  CA  THR A   7      56.849  28.010  26.545  0.00  0.00    +0.176 C 
BRANCH  11  12
ATOM     12  C   THR A   7      56.333  28.629  27.859  0.00  0.00    +0.243 C 
ATOM     13  N   VAL A   8      56.991  28.331  28.968  0.00  0.00    -0.298 N 
ATOM     14  H   VAL A   8      57.807  27.689  28.918  0.00  0.00    +0.150 HD
ATOM     15  O   THR A   7      55.305  29.308  27.864  0.00  0.00    -0.273 OA
BRANCH  13  16
ATOM     16  CA  VAL A   8      56.598  28.881  30.250  0.00  0.00    +0.137 C 
BRANCH  16  17
ATOM     17  CB  VAL A   8      55.779  27.860  31.108  0.00  0.00    +0.026 C 
ATOM     18  CG2 VAL A   8      56.139  27.950  32.583  0.00  0.00    +0.002 C 
ATOM     19  CG1 VAL A   8      55.869  26.451  30.536  0.00  0.00    +0.002 C 
ENDBRANCH  16  17
BRANCH  16  20
ATOM     20  C   VAL A   8      57.790  29.527  30.964  0.00  0.00    +0.227 C 
ATOM     21  O   VAL A   8      58.854  28.920  31.118  0.00  0.00    -0.286 OA
ENDBRANCH  16  20
ENDBRANCH  13  16
ENDBRANCH  11  12
BRANCH  11  22
ATOM     22  CB  THR A   7      57.393  29.123  25.581  0.00  0.00    +0.137 C 
ATOM     23  CG2 THR A   7      58.290  30.103  26.329  0.00  0.00    +0.034 C 
BRANCH  22  24
ATOM     24  OG1 THR A   7      58.136  28.528  24.500  0.00  0.00    -0.382 OA
ATOM     25  HG1 THR A   7      57.545  27.919  23.991  0.00  0.00    +0.210 HD
ENDBRANCH  22  24
ENDBRANCH  11  22
ENDBRANCH   9  11
ENDBRANCH   6   7
BRANCH   6  26
ATOM     26  CB  ASP A   6      53.218  25.774  26.322  0.00  0.00    +0.143 C 
BRANCH  26  27
ATOM     27  CG  ASP A   6      51.962  24.901  26.106  0.00  0.00    +0.367 C 
ATOM     28  OD2 ASP A   6      51.725  23.949  26.890  0.00  0.00    -0.246 OA
ATOM     29  OD1 ASP A   6      51.221  25.182  25.146  0.00  0.00    -0.246 OA
ENDBRANCH  26  27
ENDBRANCH   6  26
ENDBRANCH   3   6
ENDBRANCH   1   2
BRANCH   1  31
ATOM     30  C   ALA A   4      56.270  21.580  24.942  0.00  0.00    +0.241 C 
ATOM     31  N   ASP A   5      54.951  21.510  24.826  0.00  0.00    -0.297 N 
ATOM     32  H   ASP A   5      54.387  21.045  25.566  0.00  0.00    +0.150 HD
ATOM     33  O   ALA A   4      56.976  21.963  24.021  0.00  0.00    -0.273 OA
BRANCH  30  34
ATOM     34  CA  ALA A   4      56.899  20.991  26.202  0.00  0.00    +0.149 C 
ATOM     35  CB  ALA A   4      57.708  22.044  26.934  0.00  0.00    +0.031 C 
BRANCH  34  38
ATOM     36  C   GLY A   3      57.541  18.610  25.939  0.00  0.00    +0.243 C 
ATOM     37  O   GLY A   3      56.614  18.197  26.629  0.00  0.00    -0.273 OA
ATOM     38  N   ALA A   4      57.766  19.915  25.731  0.00  0.00    -0.297 N 
ATOM     39  H   ALA A   4      58.618  20.180  25.197  0.00  0.00    +0.150 HD
BRANCH  36  40
ATOM     40  CA  GLY A   3      58.568  17.622  25.339  0.00  0.00    +0.176 C 
BRANCH  40  42
ATOM     41  C   THR A   2      60.047  18.424  23.586  0.00  0.00    +0.243 C 
ATOM     42  N   GLY A   3      59.811  18.232  24.880  0.00  0.00    -0.295 N 
ATOM     43  H   GLY A   3      60.526  18.522  25.578  0.00  0.00    +0.150 HD
ATOM     44  O   THR A   2      59.233  18.095  22.721  0.00  0.00    -0.273 OA
BRANCH  41  45
ATOM     45  CA  THR A   2      61.381  19.135  23.209  0.00  0.00    +0.176 C 
BRANCH  45  48
ATOM     46  C   ASP A   1      61.460  20.882  24.923  0.00  0.00    +0.239 C 
ATOM     47  O   ASP A   1      60.348  21.343  24.698  0.00  0.00    -0.274 OA
ATOM     48  N   THR A   2      61.953  19.814  24.341  0.00  0.00    -0.295 N 
ATOM     49  H   THR A   2      62.834  19.424  24.732  0.00  0.00    +0.150 HD
BRANCH  46  50
ATOM     50  CA  ASP A   1      62.301  21.318  26.082  0.00  0.00    +0.156 C 
BRANCH  50  51
ATOM     51  N   ASP A   1      63.145  22.435  25.802  0.00  0.00    -0.238 NA
ATOM     52  H   ASP A   1      62.701  23.342  25.552  0.00  0.00    +0.142 HD
ENDBRANCH  50  51
BRANCH  50  53
ATOM     53  CB  ASP A   1      61.417  21.593  27.292  0.00  0.00    +0.140 C 
BRANCH  53  54
ATOM     54  CG  ASP A   1      60.996  20.317  28.002  0.00  0.00    +0.367 C 
ATOM     55  OD2 ASP A   1      60.858  20.320  29.241  0.00  0.00    -0.246 OA
ATOM     56  OD1 ASP A   1      60.825  19.288  27.348  0.00  0.00    -0.246 OA
ENDBRANCH  53  54
ENDBRANCH  50  53
ENDBRANCH  46  50
ENDBRANCH  45  48
BRANCH  45  57
ATOM     57  CB  THR A   2      62.504  18.252  22.676  0.00  0.00    +0.137 C 
ATOM     58  CG2 THR A   2      62.192  16.883  22.696  0.00  0.00    +0.034 C 
BRANCH  57  59
ATOM     59  OG1 THR A   2      62.876  18.697  21.383  0.00  0.00    -0.382 OA
ATOM     60  HG1 THR A   2      63.605  18.125  21.035  0.00  0.00    +0.210 HD
ENDBRANCH  57  59
ENDBRANCH  45  57
ENDBRANCH  41  45
ENDBRANCH  40  42
ENDBRANCH  36  40
ENDBRANCH  34  38
ENDBRANCH  30  34
ENDBRANCH   1  31
BRANCH   1  61
ATOM     61  CB  ASP A   5      52.806  21.738  23.637  0.00  0.00    +0.143 C 
BRANCH  61  62
ATOM     62  CG  ASP A   5      52.541  20.271  23.495  0.00  0.00    +0.367 C 
ATOM     63  OD2 ASP A   5      51.538  19.857  24.067  0.00  0.00    -0.246 OA
ATOM     64  OD1 ASP A   5      53.278  19.540  22.799  0.00  0.00    -0.246 OA
ENDBRANCH  61  62
ENDBRANCH   1  61
TORSDOF 27
REMARK  Name = ../refined-set-2016/1a94/1a94_pocket.pdb
REMARK  233 active torsions:
REMARK  status: ('A' for Active; 'I' for Inactive)
REMARK    1  A    between atoms: _1  and  _3
REMARK    2  A    between atoms: _3  and  _4
REMARK    3  A    between atoms: _3  and  _6
REMARK    4  A    between atoms: _6  and  _7
REMARK    5  A    between atoms: _7  and  _8
REMARK    6  A    between atoms: _8  and  _9
REMARK    7  A    between atoms: _18  and  _20
REMARK    8  A    between atoms: _20  and  _21
REMARK    9  A    between atoms: _20  and  _23
REMARK   10  A    between atoms: _23  and  _24
REMARK   11  A    between atoms: _27  and  _29
REMARK   12  A    between atoms: _29  and  _30
REMARK   13  A    between atoms: _29  and  _32
REMARK   14  A    between atoms: _32  and  _33
REMARK   15  A    between atoms: _36  and  _38
REMARK   16  A    between atoms: _38  and  _39
REMARK   17  A    between atoms: _38  and  _41
REMARK   18  A    between atoms: _41  and  _42
REMARK   19  A    between atoms: _45  and  _47
REMARK   20  A    between atoms: _47  and  _48
REMARK   21  A    between atoms: _47  and  _50
REMARK   22  A    between atoms: _50  and  _51
REMARK   23  A    between atoms: _54  and  _56
REMARK   24  A    between atoms: _56  and  _57
REMARK   25  A    between atoms: _59  and  _61
REMARK   26  A    between atoms: _61  and  _62
REMARK   27  A    between atoms: _65  and  _67
REMARK   28  A    between atoms: _67  and  _68
REMARK   29  A    between atoms: _67  and  _70
REMARK   30  A    between atoms: _70  and  _71
REMARK   31  A    between atoms: _74  and  _76
REMARK   32  A    between atoms: _76  and  _77
REMARK   33  A    between atoms: _76  and  _79
REMARK   34  A    between atoms: _79  and  _80
REMARK   35  A    between atoms: _83  and  _85
REMARK   36  A    between atoms: _85  and  _86
REMARK   37  A    between atoms: _85  and  _88
REMARK   38  A    between atoms: _88  and  _89
REMARK   39  A    between atoms: _92  and  _94
REMARK   40  A    between atoms: _94  and  _95
REMARK   41  A    between atoms: _94  and  _97
REMARK   42  A    between atoms: _100  and  _102
REMARK   43  A    between atoms: _102  and  _103
REMARK   44  A    between atoms: _102  and  _105
REMARK   45  A    between atoms: _105  and  _106
REMARK   46  A    between atoms: _106  and  _107
REMARK   47  A    between atoms: _107  and  _108
REMARK   48  A    between atoms: _108  and  _109
REMARK   49  A    between atoms: _113  and  _115
REMARK   50  A    between atoms: _115  and  _116
REMARK   51  A    between atoms: _115  and  _118
REMARK   52  A    between atoms: _118  and  _119
REMARK   53  A    between atoms: _119  and  _120
REMARK   54  A    between atoms: _122  and  _124
REMARK   55  A    between atoms: _124  and  _125
REMARK   56  A    between atoms: _124  and  _127
REMARK   57  A    between atoms: _127  and  _128
REMARK   58  A    between atoms: _131  and  _133
REMARK   59  A    between atoms: _133  and  _134
REMARK   60  A    between atoms: _136  and  _138
REMARK   61  A    between atoms: _138  and  _139
REMARK   62  A    between atoms: _141  and  _143
REMARK   63  A    between atoms: _143  and  _144
REMARK   64  A    between atoms: _143  and  _146
REMARK   65  A    between atoms: _146  and  _147
REMARK   66  A    between atoms: _150  and  _152
REMARK   67  A    between atoms: _152  and  _153
REMARK   68  A    between atoms: _155  and  _157
REMARK   69  A    between atoms: _157  and  _158
REMARK   70  A    between atoms: _160  and  _162
REMARK   71  A    between atoms: _162  and  _163
REMARK   72  A    between atoms: _162  and  _165
REMARK   73  A    between atoms: _165  and  _166
REMARK   74  A    between atoms: _172  and  _174
REMARK   75  A    between atoms: _174  and  _175
REMARK   76  A    between atoms: _174  and  _177
REMARK   77  A    between atoms: _177  and  _178
REMARK   78  A    between atoms: _181  and  _183
REMARK   79  A    between atoms: _183  and  _184
REMARK   80  A    between atoms: _183  and  _186
REMARK   81  A    between atoms: _189  and  _191
REMARK   82  A    between atoms: _191  and  _192
REMARK   83  A    between atoms: _191  and  _194
REMARK   84  A    between atoms: _194  and  _195
REMARK   85  A    between atoms: _195  and  _196
REMARK   86  A    between atoms: _201  and  _203
REMARK   87  A    between atoms: _203  and  _204
REMARK   88  A    between atoms: _203  and  _206
REMARK   89  A    between atoms: _206  and  _207
REMARK   90  A    between atoms: _210  and  _212
REMARK   91  A    between atoms: _212  and  _213
REMARK   92  A    between atoms: _212  and  _215
REMARK   93  A    between atoms: _215  and  _216
REMARK   94  A    between atoms: _219  and  _221
REMARK   95  A    between atoms: _221  and  _222
REMARK   96  A    between atoms: _221  and  _224
REMARK   97  A    between atoms: _224  and  _225
REMARK   98  A    between atoms: _229  and  _230
REMARK   99  A    between atoms: _235  and  _237
REMARK  100  A    between atoms: _237  and  _238
REMARK  101  A    between atoms: _237  and  _240
REMARK  102  A    between atoms: _243  and  _245
REMARK  103  A    between atoms: _245  and  _246
REMARK  104  A    between atoms: _245  and  _248
REMARK  105  A    between atoms: _248  and  _249
REMARK  106  A    between atoms: _254  and  _256
REMARK  107  A    between atoms: _256  and  _257
REMARK  108  A    between atoms: _256  and  _259
REMARK  109  A    between atoms: _259  and  _260
REMARK  110  A    between atoms: _263  and  _265
REMARK  111  A    between atoms: _265  and  _266
REMARK  112  A    between atoms: _265  and  _268
REMARK  113  A    between atoms: _268  and  _269
REMARK  114  A    between atoms: _272  and  _274
REMARK  115  A    between atoms: _274  and  _275
REMARK  116  A    between atoms: _277  and  _279
REMARK  117  A    between atoms: _279  and  _280
REMARK  118  A    between atoms: _279  and  _282
REMARK  119  A    between atoms: _282  and  _283
REMARK  120  A    between atoms: _283  and  _284
REMARK  121  A    between atoms: _284  and  _285
REMARK  122  A    between atoms: _294  and  _296
REMARK  123  A    between atoms: _296  and  _297
REMARK  124  A    between atoms: _296  and  _299
REMARK  125  A    between atoms: _299  and  _300
REMARK  126  A    between atoms: _305  and  _307
REMARK  127  A    between atoms: _307  and  _308
REMARK  128  A    between atoms: _307  and  _310
REMARK  129  A    between atoms: _310  and  _311
REMARK  130  A    between atoms: _311  and  _312
REMARK  131  A    between atoms: _312  and  _313
REMARK  132  A    between atoms: _322  and  _324
REMARK  133  A    between atoms: _324  and  _325
REMARK  134  A    between atoms: _324  and  _327
REMARK  135  A    between atoms: _327  and  _328
REMARK  136  A    between atoms: _331  and  _333
REMARK  137  A    between atoms: _333  and  _334
REMARK  138  A    between atoms: _333  and  _336
REMARK  139  A    between atoms: _336  and  _337
REMARK  140  A    between atoms: _340  and  _342
REMARK  141  A    between atoms: _342  and  _343
REMARK  142  A    between atoms: _342  and  _345
REMARK  143  A    between atoms: _345  and  _346
REMARK  144  A    between atoms: _349  and  _351
REMARK  145  A    between atoms: _351  and  _352
REMARK  146  A    between atoms: _354  and  _356
REMARK  147  A    between atoms: _356  and  _357
REMARK  148  A    between atoms: _360  and  _362
REMARK  149  A    between atoms: _362  and  _363
REMARK  150  A    between atoms: _362  and  _365
REMARK  151  A    between atoms: _365  and  _366
REMARK  152  A    between atoms: _369  and  _371
REMARK  153  A    between atoms: _371  and  _372
REMARK  154  A    between atoms: _371  and  _374
REMARK  155  A    between atoms: _374  and  _375
REMARK  156  A    between atoms: _378  and  _380
REMARK  157  A    between atoms: _380  and  _381
REMARK  158  A    between atoms: _380  and  _383
REMARK  159  A    between atoms: _383  and  _384
REMARK  160  A    between atoms: _387  and  _389
REMARK  161  A    between atoms: _389  and  _390
REMARK  162  A    between atoms: _389  and  _392
REMARK  163  A    between atoms: _395  and  _397
REMARK  164  A    between atoms: _397  and  _398
REMARK  165  A    between atoms: _397  and  _400
REMARK  166  A    between atoms: _400  and  _401
REMARK  167  A    between atoms: _401  and  _402
REMARK  168  A    between atoms: _402  and  _403
REMARK  169  A    between atoms: _403  and  _404
REMARK  170  A    between atoms: _408  and  _410
REMARK  171  A    between atoms: _410  and  _411
REMARK  172  A    between atoms: _410  and  _413
REMARK  173  A    between atoms: _413  and  _414
REMARK  174  A    between atoms: _414  and  _415
REMARK  175  A    between atoms: _417  and  _419
REMARK  176  A    between atoms: _419  and  _420
REMARK  177  A    between atoms: _419  and  _422
REMARK  178  A    between atoms: _422  and  _423
REMARK  179  A    between atoms: _426  and  _428
REMARK  180  A    between atoms: _428  and  _429
REMARK  181  A    between atoms: _431  and  _433
REMARK  182  A    between atoms: _433  and  _434
REMARK  183  A    between atoms: _436  and  _438
REMARK  184  A    between atoms: _438  and  _439
REMARK  185  A    between atoms: _438  and  _441
REMARK  186  A    between atoms: _441  and  _442
REMARK  187  A    between atoms: _445  and  _447
REMARK  188  A    between atoms: _447  and  _448
REMARK  189  A    between atoms: _450  and  _452
REMARK  190  A    between atoms: _452  and  _453
REMARK  191  A    between atoms: _455  and  _457
REMARK  192  A    between atoms: _457  and  _458
REMARK  193  A    between atoms: _457  and  _460
REMARK  194  A    between atoms: _460  and  _461
REMARK  195  A    between atoms: _467  and  _469
REMARK  196  A    between atoms: _469  and  _470
REMARK  197  A    between atoms: _469  and  _472
REMARK  198  A    between atoms: _472  and  _473
REMARK  199  A    between atoms: _476  and  _478
REMARK  200  A    between atoms: _478  and  _479
REMARK  201  A    between atoms: _478  and  _481
REMARK  202  A    between atoms: _484  and  _486
REMARK  203  A    between atoms: _486  and  _487
REMARK  204  A    between atoms: _486  and  _489
REMARK  205  A    between atoms: _489  and  _490
REMARK  206  A    between atoms: _493  and  _495
REMARK  207  A    between atoms: _495  and  _496
REMARK  208  A    between atoms: _495  and  _498
REMARK  209  A    between atoms: _498  and  _499
REMARK  210  A    between atoms: _503  and  _504
REMARK  211  A    between atoms: _509  and  _511
REMARK  212  A    between atoms: _511  and  _512
REMARK  213  A    between atoms: _511  and  _514
REMARK  214  A    between atoms: _517  and  _519
REMARK  215  A    between atoms: _519  and  _520
REMARK  216  A    between atoms: _519  and  _522
REMARK  217  A    between atoms: _522  and  _523
REMARK  218  A    between atoms: _528  and  _530
REMARK  219  A    between atoms: _530  and  _531
REMARK  220  A    between atoms: _530  and  _533
REMARK  221  A    between atoms: _533  and  _534
REMARK  222  A    between atoms: _537  and  _539
REMARK  223  A    between atoms: _539  and  _540
REMARK  224  A    between atoms: _539  and  _542
REMARK  225  A    between atoms: _542  and  _543
REMARK  226  A    between atoms: _546  and  _548
REMARK  227  A    between atoms: _548  and  _549
REMARK  228  A    between atoms: _551  and  _553
REMARK  229  A    between atoms: _553  and  _554
REMARK  230  A    between atoms: _553  and  _556
REMARK  231  A    between atoms: _556  and  _557
REMARK  232  A    between atoms: _557  and  _558
REMARK  233  A    between atoms: _558  and  _559
REMARK                            x       y       z     vdW  Elec       q    Type
REMARK                         _______ _______ _______ _____ _____    ______ ____
ROOT
ATOM      1  C   GLY A   5      52.809  16.928  34.267  0.00  0.00    +0.243 C 
ATOM      2  O   GLY A   5      51.745  16.468  34.683  0.00  0.00    -0.273 OA
ATOM      3  N   ILE A   6      53.996  16.459  34.632  0.00  0.00    -0.297 N 
ATOM      4  H   ILE A   6      54.854  16.883  34.225  0.00  0.00    +0.150 HD
ENDROOT
BRANCH   3   5
ATOM      5  CA  ILE A   6      54.128  15.374  35.581  0.00  0.00    +0.149 C 
BRANCH   5   6
ATOM      6  C   ILE A   6      53.761  15.970  36.955  0.00  0.00    +0.241 C 
ATOM      7  N   GLY A   7      52.817  15.342  37.643  0.00  0.00    -0.295 N 
ATOM      8  H   GLY A   7      52.344  14.511  37.233  0.00  0.00    +0.150 HD
ATOM      9  O   ILE A   6      54.251  17.046  37.328  0.00  0.00    -0.273 OA
BRANCH   7  10
ATOM     10  CA  GLY A   7      52.439  15.809  38.968  0.00  0.00    +0.176 C 
BRANCH  10  11
ATOM     11  C   GLY A   7      51.230  16.731  39.131  0.00  0.00    +0.243 C 
ATOM     12  O   GLY A   7      50.759  16.898  40.253  0.00  0.00    -0.273 OA
ATOM     13  N   GLY A   8      50.699  17.287  38.043  0.00  0.00    -0.295 N 
ATOM     14  H   GLY A   8      51.085  17.055  37.105  0.00  0.00    +0.150 HD
BRANCH  13  15
ATOM     15  CA  GLY A   8      49.587  18.214  38.154  0.00  0.00    +0.176 C 
BRANCH  15  16
ATOM     16  C   GLY A   8      49.644  19.462  37.265  0.00  0.00    +0.243 C 
ATOM     17  N   PHE A   9      48.814  20.434  37.609  0.00  0.00    -0.297 N 
ATOM     18  H   PHE A   9      48.237  20.325  38.468  0.00  0.00    +0.150 HD
ATOM     19  O   GLY A   8      50.455  19.585  36.329  0.00  0.00    -0.273 OA
BRANCH  17  20
ATOM     20  CA  PHE A   9      48.684  21.655  36.818  0.00  0.00    +0.153 C 
BRANCH  20  21
ATOM     21  C   PHE A   9      49.046  22.860  37.646  0.00  0.00    +0.241 C 
ATOM     22  O   PHE A   9      49.027  22.790  38.874  0.00  0.00    -0.273 OA
ATOM     23  N   ILE A  10      49.438  23.932  36.964  0.00  0.00    -0.298 N 
ATOM     24  H   ILE A  10      49.548  23.852  35.933  0.00  0.00    +0.150 HD
BRANCH  23  25
ATOM     25  CA  ILE A  10      49.720  25.210  37.596  0.00  0.00    +0.137 C 
BRANCH  25  26
ATOM     26  C   ILE A  10      48.967  26.322  36.828  0.00  0.00    +0.227 C 
ATOM     27  O   ILE A  10      48.680  26.194  35.609  0.00  0.00    -0.286 OA
ENDBRANCH  25  26
BRANCH  25  28
ATOM     28  CB  ILE A  10      51.220  25.555  37.686  0.00  0.00    +0.026 C 
ATOM     29  CG2 ILE A  10      51.944  24.488  38.527  0.00  0.00    +0.002 C 
BRANCH  28  30
ATOM     30  CG1 ILE A  10      51.837  25.723  36.300  0.00  0.00    +0.002 C 
ATOM     31  CD1 ILE A  10      53.228  26.406  36.345  0.00  0.00    +0.000 C 
ENDBRANCH  28  30
ENDBRANCH  25  28
ENDBRANCH  23  25
ENDBRANCH  20  21
BRANCH  20  32
ATOM     32  CB  PHE A   9      47.217  21.847  36.362  0.00  0.00    +0.055 C 
BRANCH  32  33
ATOM     33  CG  PHE A   9      46.774  20.922  35.263  0.00  0.00    -0.020 A 
ATOM     34  CD2 PHE A   9      46.537  19.583  35.507  0.00  0.00    -0.004 A 
ATOM     35  CE2 PHE A   9      46.145  18.747  34.470  0.00  0.00    -0.000 A 
ATOM     36  CZ  PHE A   9      45.989  19.249  33.160  0.00  0.00    -0.000 A 
ATOM     37  CE1 PHE A   9      46.216  20.568  32.918  0.00  0.00    -0.000 A 
ATOM     38  CD1 PHE A   9      46.603  21.401  33.962  0.00  0.00    -0.004 A 
ENDBRANCH  32  33
ENDBRANCH  20  32
ENDBRANCH  17  20
ENDBRANCH  15  16
ENDBRANCH  13  15
ENDBRANCH  10  11
ENDBRANCH   7  10
ENDBRANCH   5   6
BRANCH   5  39
ATOM     39  CB  ILE A   6      55.604  14.814  35.538  0.00  0.00    +0.027 C 
ATOM     40  CG2 ILE A   6      56.097  14.352  36.916  0.00  0.00    +0.002 C 
BRANCH  39  41
ATOM     41  CG1 ILE A   6      55.699  13.650  34.545  0.00  0.00    +0.002 C 
ATOM     42  CD1 ILE A   6      57.091  12.939  34.564  0.00  0.00    +0.000 C 
ENDBRANCH  39  41
ENDBRANCH   5  39
ENDBRANCH   3   5
BRANCH   1  43
ATOM     43  CA  GLY A   5      52.814  18.075  33.291  0.00  0.00    +0.176 C 
BRANCH  43  45
ATOM     44  C   GLY A   4      51.161  19.737  32.826  0.00  0.00    +0.243 C 
ATOM     45  N   GLY A   5      51.655  18.840  33.648  0.00  0.00    -0.295 N 
ATOM     46  H   GLY A   5      51.200  18.682  34.570  0.00  0.00    +0.150 HD
ATOM     47  O   GLY A   4      51.667  19.971  31.730  0.00  0.00    -0.273 OA
BRANCH  44  48
ATOM     48  CA  GLY A   4      49.926  20.455  33.324  0.00  0.00    +0.176 C 
BRANCH  48  51
ATOM     49  C   ILE A   3      49.496  22.822  33.212  0.00  0.00    +0.241 C 
ATOM     50  O   ILE A   3      49.749  22.961  34.419  0.00  0.00    -0.273 OA
ATOM     51  N   GLY A   4      49.541  21.640  32.594  0.00  0.00    -0.295 N 
ATOM     52  H   GLY A   4      49.298  21.572  31.585  0.00  0.00    +0.150 HD
BRANCH  49  53
ATOM     53  CA  ILE A   3      49.050  24.030  32.356  0.00  0.00    +0.149 C 
BRANCH  53  55
ATOM     54  C   MET A   2      46.971  25.236  32.555  0.00  0.00    +0.241 C 
ATOM     55  N   ILE A   3      48.163  24.938  33.057  0.00  0.00    -0.297 N 
ATOM     56  H   ILE A   3      48.463  25.359  33.960  0.00  0.00    +0.150 HD
ATOM     57  O   MET A   2      46.596  24.850  31.441  0.00  0.00    -0.273 OA
BRANCH  54  58
ATOM     58  CA  MET A   2      46.078  26.150  33.384  0.00  0.00    +0.149 C 
BRANCH  58  61
ATOM     59  C   LYS A   1      46.010  28.499  32.713  0.00  0.00    +0.238 C 
ATOM     60  O   LYS A   1      46.672  28.839  33.688  0.00  0.00    -0.274 OA
ATOM     61  N   MET A   2      45.624  27.239  32.517  0.00  0.00    -0.297 N 
ATOM     62  H   MET A   2      44.983  27.023  31.727  0.00  0.00    +0.150 HD
BRANCH  59  63
ATOM     63  CA  LYS A   1      45.510  29.547  31.713  0.00  0.00    +0.145 C 
BRANCH  63  64
ATOM     64  N   LYS A   1      45.457  30.830  32.367  0.00  0.00    -0.238 NA
ATOM     65  H   LYS A   1      46.203  31.103  33.038  0.00  0.00    +0.142 HD
ENDBRANCH  63  64
BRANCH  63  66
ATOM     66  CB  LYS A   1      46.441  29.662  30.507  0.00  0.00    +0.026 C 
BRANCH  66  67
ATOM     67  CG  LYS A   1      46.344  28.501  29.545  0.00  0.00    -0.000 C 
BRANCH  67  68
ATOM     68  CD  LYS A   1      47.447  28.565  28.484  0.00  0.00    -0.024 C 
BRANCH  68  69
ATOM     69  CE  LYS A   1      47.251  27.541  27.331  0.00  0.00    -0.086 C 
BRANCH  69  70
ATOM     70  NZ  LYS A   1      47.690  26.149  27.615  0.00  0.00    +0.380 N 
ATOM     71  HZ1 LYS A   1      47.156  25.777  28.427  0.00  0.00    -0.089 HD
ATOM     72  HZ2 LYS A   1      48.706  26.146  27.836  0.00  0.00    -0.089 HD
ATOM     73  HZ3 LYS A   1      47.513  25.554  26.780  0.00  0.00    -0.089 HD
ENDBRANCH  69  70
ENDBRANCH  68  69
ENDBRANCH  67  68
ENDBRANCH  66  67
ENDBRANCH  63  66
ENDBRANCH  59  63
ENDBRANCH  58  61
BRANCH  58  74
ATOM     74  CB  MET A   2      44.905  25.310  33.883  0.00  0.00    +0.041 C 
BRANCH  74  75
ATOM     75  CG  MET A   2      44.044  25.972  34.931  0.00  0.00    +0.060 C 
BRANCH  75  76
ATOM     76  SD  MET A   2      44.787  25.860  36.516  0.00  0.00    -0.139 S 
ATOM     77  CE  MET A   2      44.347  24.128  36.998  0.00  0.00    +0.069 C 
ENDBRANCH  75  76
ENDBRANCH  74  75
ENDBRANCH  58  74
ENDBRANCH  54  58
ENDBRANCH  53  55
BRANCH  53  78
ATOM     78  CB  ILE A   3      50.264  24.748  31.727  0.00  0.00    +0.027 C 
ATOM     79  CG2 ILE A   3      49.808  25.634  30.588  0.00  0.00    +0.002 C 
BRANCH  78  80
ATOM     80  CG1 ILE A   3      51.074  25.497  32.772  0.00  0.00    +0.002 C 
ATOM     81  CD1 ILE A   3      52.516  25.100  32.726  0.00  0.00    +0.000 C 
ENDBRANCH  78  80
ENDBRANCH  53  78
ENDBRANCH  49  53
ENDBRANCH  48  51
ENDBRANCH  44  48
ENDBRANCH  43  45
ENDBRANCH   1  43
TORSDOF 36
REMARK  Name = ../refined-set-2016/1a94/1a94_pocket.pdb
REMARK  233 active torsions:
REMARK  status: ('A' for Active; 'I' for Inactive)
REMARK    1  A    between atoms: _1  and  _3
REMARK    2  A    between atoms: _3  and  _4
REMARK    3  A    between atoms: _3  and  _6
REMARK    4  A    between atoms: _6  and  _7
REMARK    5  A    between atoms: _7  and  _8
REMARK    6  A    between atoms: _8  and  _9
REMARK    7  A    between atoms: _18  and  _20
REMARK    8  A    between atoms: _20  and  _21
REMARK    9  A    between atoms: _20  and  _23
REMARK   10  A    between atoms: _23  and  _24
REMARK   11  A    between atoms: _27  and  _29
REMARK   12  A    between atoms: _29  and  _30
REMARK   13  A    between atoms: _29  and  _32
REMARK   14  A    between atoms: _32  and  _33
REMARK   15  A    between atoms: _36  and  _38
REMARK   16  A    between atoms: _38  and  _39
REMARK   17  A    between atoms: _38  and  _41
REMARK   18  A    between atoms: _41  and  _42
REMARK   19  A    between atoms: _45  and  _47
REMARK   20  A    between atoms: _47  and  _48
REMARK   21  A    between atoms: _47  and  _50
REMARK   22  A    between atoms: _50  and  _51
REMARK   23  A    between atoms: _54  and  _56
REMARK   24  A    between atoms: _56  and  _57
REMARK   25  A    between atoms: _59  and  _61
REMARK   26  A    between atoms: _61  and  _62
REMARK   27  A    between atoms: _65  and  _67
REMARK   28  A    between atoms: _67  and  _68
REMARK   29  A    between atoms: _67  and  _70
REMARK   30  A    between atoms: _70  and  _71
REMARK   31  A    between atoms: _74  and  _76
REMARK   32  A    between atoms: _76  and  _77
REMARK   33  A    between atoms: _76  and  _79
REMARK   34  A    between atoms: _79  and  _80
REMARK   35  A    between atoms: _83  and  _85
REMARK   36  A    between atoms: _85  and  _86
REMARK   37  A    between atoms: _85  and  _88
REMARK   38  A    between atoms: _88  and  _89
REMARK   39  A    between atoms: _92  and  _94
REMARK   40  A    between atoms: _94  and  _95
REMARK   41  A    between atoms: _94  and  _97
REMARK   42  A    between atoms: _100  and  _102
REMARK   43  A    between atoms: _102  and  _103
REMARK   44  A    between atoms: _102  and  _105
REMARK   45  A    between atoms: _105  and  _106
REMARK   46  A    between atoms: _106  and  _107
REMARK   47  A    between atoms: _107  and  _108
REMARK   48  A    between atoms: _108  and  _109
REMARK   49  A    between atoms: _113  and  _115
REMARK   50  A    between atoms: _115  and  _116
REMARK   51  A    between atoms: _115  and  _118
REMARK   52  A    between atoms: _118  and  _119
REMARK   53  A    between atoms: _119  and  _120
REMARK   54  A    between atoms: _122  and  _124
REMARK   55  A    between atoms: _124  and  _125
REMARK   56  A    between atoms: _124  and  _127
REMARK   57  A    between atoms: _127  and  _128
REMARK   58  A    between atoms: _131  and  _133
REMARK   59  A    between atoms: _133  and  _134
REMARK   60  A    between atoms: _136  and  _138
REMARK   61  A    between atoms: _138  and  _139
REMARK   62  A    between atoms: _141  and  _143
REMARK   63  A    between atoms: _143  and  _144
REMARK   64  A    between atoms: _143  and  _146
REMARK   65  A    between atoms: _146  and  _147
REMARK   66  A    between atoms: _150  and  _152
REMARK   67  A    between atoms: _152  and  _153
REMARK   68  A    between atoms: _155  and  _157
REMARK   69  A    between atoms: _157  and  _158
REMARK   70  A    between atoms: _160  and  _162
REMARK   71  A    between atoms: _162  and  _163
REMARK   72  A    between atoms: _162  and  _165
REMARK   73  A    between atoms: _165  and  _166
REMARK   74  A    between atoms: _172  and  _174
REMARK   75  A    between atoms: _174  and  _175
REMARK   76  A    between atoms: _174  and  _177
REMARK   77  A    between atoms: _177  and  _178
REMARK   78  A    between atoms: _181  and  _183
REMARK   79  A    between atoms: _183  and  _184
REMARK   80  A    between atoms: _183  and  _186
REMARK   81  A    between atoms: _189  and  _191
REMARK   82  A    between atoms: _191  and  _192
REMARK   83  A    between atoms: _191  and  _194
REMARK   84  A    between atoms: _194  and  _195
REMARK   85  A    between atoms: _195  and  _196
REMARK   86  A    between atoms: _201  and  _203
REMARK   87  A    between atoms: _203  and  _204
REMARK   88  A    between atoms: _203  and  _206
REMARK   89  A    between atoms: _206  and  _207
REMARK   90  A    between atoms: _210  and  _212
REMARK   91  A    between atoms: _212  and  _213
REMARK   92  A    between atoms: _212  and  _215
REMARK   93  A    between atoms: _215  and  _216
REMARK   94  A    between atoms: _219  and  _221
REMARK   95  A    between atoms: _221  and  _222
REMARK   96  A    between atoms: _221  and  _224
REMARK   97  A    between atoms: _224  and  _225
REMARK   98  A    between atoms: _229  and  _230
REMARK   99  A    between atoms: _235  and  _237
REMARK  100  A    between atoms: _237  and  _238
REMARK  101  A    between atoms: _237  and  _240
REMARK  102  A    between atoms: _243  and  _245
REMARK  103  A    between atoms: _245  and  _246
REMARK  104  A    between atoms: _245  and  _248
REMARK  105  A    between atoms: _248  and  _249
REMARK  106  A    between atoms: _254  and  _256
REMARK  107  A    between atoms: _256  and  _257
REMARK  108  A    between atoms: _256  and  _259
REMARK  109  A    between atoms: _259  and  _260
REMARK  110  A    between atoms: _263  and  _265
REMARK  111  A    between atoms: _265  and  _266
REMARK  112  A    between atoms: _265  and  _268
REMARK  113  A    between atoms: _268  and  _269
REMARK  114  A    between atoms: _272  and  _274
REMARK  115  A    between atoms: _274  and  _275
REMARK  116  A    between atoms: _277  and  _279
REMARK  117  A    between atoms: _279  and  _280
REMARK  118  A    between atoms: _279  and  _282
REMARK  119  A    between atoms: _282  and  _283
REMARK  120  A    between atoms: _283  and  _284
REMARK  121  A    between atoms: _284  and  _285
REMARK  122  A    between atoms: _294  and  _296
REMARK  123  A    between atoms: _296  and  _297
REMARK  124  A    between atoms: _296  and  _299
REMARK  125  A    between atoms: _299  and  _300
REMARK  126  A    between atoms: _305  and  _307
REMARK  127  A    between atoms: _307  and  _308
REMARK  128  A    between atoms: _307  and  _310
REMARK  129  A    between atoms: _310  and  _311
REMARK  130  A    between atoms: _311  and  _312
REMARK  131  A    between atoms: _312  and  _313
REMARK  132  A    between atoms: _322  and  _324
REMARK  133  A    between atoms: _324  and  _325
REMARK  134  A    between atoms: _324  and  _327
REMARK  135  A    between atoms: _327  and  _328
REMARK  136  A    between atoms: _331  and  _333
REMARK  137  A    between atoms: _333  and  _334
REMARK  138  A    between atoms: _333  and  _336
REMARK  139  A    between atoms: _336  and  _337
REMARK  140  A    between atoms: _340  and  _342
REMARK  141  A    between atoms: _342  and  _343
REMARK  142  A    between atoms: _342  and  _345
REMARK  143  A    between atoms: _345  and  _346
REMARK  144  A    between atoms: _349  and  _351
REMARK  145  A    between atoms: _351  and  _352
REMARK  146  A    between atoms: _354  and  _356
REMARK  147  A    between atoms: _356  and  _357
REMARK  148  A    between atoms: _360  and  _362
REMARK  149  A    between atoms: _362  and  _363
REMARK  150  A    between atoms: _362  and  _365
REMARK  151  A    between atoms: _365  and  _366
REMARK  152  A    between atoms: _369  and  _371
REMARK  153  A    between atoms: _371  and  _372
REMARK  154  A    between atoms: _371  and  _374
REMARK  155  A    between atoms: _374  and  _375
REMARK  156  A    between atoms: _378  and  _380
REMARK  157  A    between atoms: _380  and  _381
REMARK  158  A    between atoms: _380  and  _383
REMARK  159  A    between atoms: _383  and  _384
REMARK  160  A    between atoms: _387  and  _389
REMARK  161  A    between atoms: _389  and  _390
REMARK  162  A    between atoms: _389  and  _392
REMARK  163  A    between atoms: _395  and  _397
REMARK  164  A    between atoms: _397  and  _398
REMARK  165  A    between atoms: _397  and  _400
REMARK  166  A    between atoms: _400  and  _401
REMARK  167  A    between atoms: _401  and  _402
REMARK  168  A    between atoms: _402  and  _403
REMARK  169  A    between atoms: _403  and  _404
REMARK  170  A    between atoms: _408  and  _410
REMARK  171  A    between atoms: _410  and  _411
REMARK  172  A    between atoms: _410  and  _413
REMARK  173  A    between atoms: _413  and  _414
REMARK  174  A    between atoms: _414  and  _415
REMARK  175  A    between atoms: _417  and  _419
REMARK  176  A    between atoms: _419  and  _420
REMARK  177  A    between atoms: _419  and  _422
REMARK  178  A    between atoms: _422  and  _423
REMARK  179  A    between atoms: _426  and  _428
REMARK  180  A    between atoms: _428  and  _429
REMARK  181  A    between atoms: _431  and  _433
REMARK  182  A    between atoms: _433  and  _434
REMARK  183  A    between atoms: _436  and  _438
REMARK  184  A    between atoms: _438  and  _439
REMARK  185  A    between atoms: _438  and  _441
REMARK  186  A    between atoms: _441  and  _442
REMARK  187  A    between atoms: _445  and  _447
REMARK  188  A    between atoms: _447  and  _448
REMARK  189  A    between atoms: _450  and  _452
REMARK  190  A    between atoms: _452  and  _453
REMARK  191  A    between atoms: _455  and  _457
REMARK  192  A    between atoms: _457  and  _458
REMARK  193  A    between atoms: _457  and  _460
REMARK  194  A    between atoms: _460  and  _461
REMARK  195  A    between atoms: _467  and  _469
REMARK  196  A    between atoms: _469  and  _470
REMARK  197  A    between atoms: _469  and  _472
REMARK  198  A    between atoms: _472  and  _473
REMARK  199  A    between atoms: _476  and  _478
REMARK  200  A    between atoms: _478  and  _479
REMARK  201  A    between atoms: _478  and  _481
REMARK  202  A    between atoms: _484  and  _486
REMARK  203  A    between atoms: _486  and  _487
REMARK  204  A    between atoms: _486  and  _489
REMARK  205  A    between atoms: _489  and  _490
REMARK  206  A    between atoms: _493  and  _495
REMARK  207  A    between atoms: _495  and  _496
REMARK  208  A    between atoms: _495  and  _498
REMARK  209  A    between atoms: _498  and  _499
REMARK  210  A    between atoms: _503  and  _504
REMARK  211  A    between atoms: _509  and  _511
REMARK  212  A    between atoms: _511  and  _512
REMARK  213  A    between atoms: _511  and  _514
REMARK  214  A    between atoms: _517  and  _519
REMARK  215  A    between atoms: _519  and  _520
REMARK  216  A    between atoms: _519  and  _522
REMARK  217  A    between atoms: _522  and  _523
REMARK  218  A    between atoms: _528  and  _530
REMARK  219  A    between atoms: _530  and  _531
REMARK  220  A    between atoms: _530  and  _533
REMARK  221  A    between atoms: _533  and  _534
REMARK  222  A    between atoms: _537  and  _539
REMARK  223  A    between atoms: _539  and  _540
REMARK  224  A    between atoms: _539  and  _542
REMARK  225  A    between atoms: _542  and  _543
REMARK  226  A    between atoms: _546  and  _548
REMARK  227  A    between atoms: _548  and  _549
REMARK  228  A    between atoms: _551  and  _553
REMARK  229  A    between atoms: _553  and  _554
REMARK  230  A    between atoms: _553  and  _556
REMARK  231  A    between atoms: _556  and  _557
REMARK  232  A    between atoms: _557  and  _558
REMARK  233  A    between atoms: _558  and  _559
REMARK                            x       y       z     vdW  Elec       q    Type
REMARK                         _______ _______ _______ _____ _____    ______ ____
ROOT
ATOM      1  CA  VAL A   1      49.729  30.702  34.418  0.00  0.00    +0.133 C 
ENDROOT
BRANCH   1   2
ATOM      2  CB  VAL A   1      50.580  29.931  33.331  0.00  0.00    +0.023 C 
ATOM      3  CG2 VAL A   1      51.602  29.029  33.997  0.00  0.00    +0.002 C 
ATOM      4  CG1 VAL A   1      49.678  29.097  32.395  0.00  0.00    +0.002 C 
ENDBRANCH   1   2
BRANCH   1   5
ATOM      5  N   VAL A   1      48.784  29.803  35.072  0.00  0.00    -0.239 NA
ATOM      6  H   VAL A   1      47.954  29.469  34.542  0.00  0.00    +0.142 HD
ENDBRANCH   1   5
BRANCH   1   7
ATOM      7  C   VAL A   1      48.973  31.867  33.755  0.00  0.00    +0.224 C 
ATOM      8  O   VAL A   1      47.760  31.831  33.687  0.00  0.00    -0.287 OA
ENDBRANCH   1   7
TORSDOF 3
REMARK  Name = ../refined-set-2016/1a94/1a94_pocket.pdb
REMARK  233 active torsions:
REMARK  status: ('A' for Active; 'I' for Inactive)
REMARK    1  A    between atoms: _1  and  _3
REMARK    2  A    between atoms: _3  and  _4
REMARK    3  A    between atoms: _3  and  _6
REMARK    4  A    between atoms: _6  and  _7
REMARK    5  A    between atoms: _7  and  _8
REMARK    6  A    between atoms: _8  and  _9
REMARK    7  A    between atoms: _18  and  _20
REMARK    8  A    between atoms: _20  and  _21
REMARK    9  A    between atoms: _20  and  _23
REMARK   10  A    between atoms: _23  and  _24
REMARK   11  A    between atoms: _27  and  _29
REMARK   12  A    between atoms: _29  and  _30
REMARK   13  A    between atoms: _29  and  _32
REMARK   14  A    between atoms: _32  and  _33
REMARK   15  A    between atoms: _36  and  _38
REMARK   16  A    between atoms: _38  and  _39
REMARK   17  A    between atoms: _38  and  _41
REMARK   18  A    between atoms: _41  and  _42
REMARK   19  A    between atoms: _45  and  _47
REMARK   20  A    between atoms: _47  and  _48
REMARK   21  A    between atoms: _47  and  _50
REMARK   22  A    between atoms: _50  and  _51
REMARK   23  A    between atoms: _54  and  _56
REMARK   24  A    between atoms: _56  and  _57
REMARK   25  A    between atoms: _59  and  _61
REMARK   26  A    between atoms: _61  and  _62
REMARK   27  A    between atoms: _65  and  _67
REMARK   28  A    between atoms: _67  and  _68
REMARK   29  A    between atoms: _67  and  _70
REMARK   30  A    between atoms: _70  and  _71
REMARK   31  A    between atoms: _74  and  _76
REMARK   32  A    between atoms: _76  and  _77
REMARK   33  A    between atoms: _76  and  _79
REMARK   34  A    between atoms: _79  and  _80
REMARK   35  A    between atoms: _83  and  _85
REMARK   36  A    between atoms: _85  and  _86
REMARK   37  A    between atoms: _85  and  _88
REMARK   38  A    between atoms: _88  and  _89
REMARK   39  A    between atoms: _92  and  _94
REMARK   40  A    between atoms: _94  and  _95
REMARK   41  A    between atoms: _94  and  _97
REMARK   42  A    between atoms: _100  and  _102
REMARK   43  A    between atoms: _102  and  _103
REMARK   44  A    between atoms: _102  and  _105
REMARK   45  A    between atoms: _105  and  _106
REMARK   46  A    between atoms: _106  and  _107
REMARK   47  A    between atoms: _107  and  _108
REMARK   48  A    between atoms: _108  and  _109
REMARK   49  A    between atoms: _113  and  _115
REMARK   50  A    between atoms: _115  and  _116
REMARK   51  A    between atoms: _115  and  _118
REMARK   52  A    between atoms: _118  and  _119
REMARK   53  A    between atoms: _119  and  _120
REMARK   54  A    between atoms: _122  and  _124
REMARK   55  A    between atoms: _124  and  _125
REMARK   56  A    between atoms: _124  and  _127
REMARK   57  A    between atoms: _127  and  _128
REMARK   58  A    between atoms: _131  and  _133
REMARK   59  A    between atoms: _133  and  _134
REMARK   60  A    between atoms: _136  and  _138
REMARK   61  A    between atoms: _138  and  _139
REMARK   62  A    between atoms: _141  and  _143
REMARK   63  A    between atoms: _143  and  _144
REMARK   64  A    between atoms: _143  and  _146
REMARK   65  A    between atoms: _146  and  _147
REMARK   66  A    between atoms: _150  and  _152
REMARK   67  A    between atoms: _152  and  _153
REMARK   68  A    between atoms: _155  and  _157
REMARK   69  A    between atoms: _157  and  _158
REMARK   70  A    between atoms: _160  and  _162
REMARK   71  A    between atoms: _162  and  _163
REMARK   72  A    between atoms: _162  and  _165
REMARK   73  A    between atoms: _165  and  _166
REMARK   74  A    between atoms: _172  and  _174
REMARK   75  A    between atoms: _174  and  _175
REMARK   76  A    between atoms: _174  and  _177
REMARK   77  A    between atoms: _177  and  _178
REMARK   78  A    between atoms: _181  and  _183
REMARK   79  A    between atoms: _183  and  _184
REMARK   80  A    between atoms: _183  and  _186
REMARK   81  A    between atoms: _189  and  _191
REMARK   82  A    between atoms: _191  and  _192
REMARK   83  A    between atoms: _191  and  _194
REMARK   84  A    between atoms: _194  and  _195
REMARK   85  A    between atoms: _195  and  _196
REMARK   86  A    between atoms: _201  and  _203
REMARK   87  A    between atoms: _203  and  _204
REMARK   88  A    between atoms: _203  and  _206
REMARK   89  A    between atoms: _206  and  _207
REMARK   90  A    between atoms: _210  and  _212
REMARK   91  A    between atoms: _212  and  _213
REMARK   92  A    between atoms: _212  and  _215
REMARK   93  A    between atoms: _215  and  _216
REMARK   94  A    between atoms: _219  and  _221
REMARK   95  A    between atoms: _221  and  _222
REMARK   96  A    between atoms: _221  and  _224
REMARK   97  A    between atoms: _224  and  _225
REMARK   98  A    between atoms: _229  and  _230
REMARK   99  A    between atoms: _235  and  _237
REMARK  100  A    between atoms: _237  and  _238
REMARK  101  A    between atoms: _237  and  _240
REMARK  102  A    between atoms: _243  and  _245
REMARK  103  A    between atoms: _245  and  _246
REMARK  104  A    between atoms: _245  and  _248
REMARK  105  A    between atoms: _248  and  _249
REMARK  106  A    between atoms: _254  and  _256
REMARK  107  A    between atoms: _256  and  _257
REMARK  108  A    between atoms: _256  and  _259
REMARK  109  A    between atoms: _259  and  _260
REMARK  110  A    between atoms: _263  and  _265
REMARK  111  A    between atoms: _265  and  _266
REMARK  112  A    between atoms: _265  and  _268
REMARK  113  A    between atoms: _268  and  _269
REMARK  114  A    between atoms: _272  and  _274
REMARK  115  A    between atoms: _274  and  _275
REMARK  116  A    between atoms: _277  and  _279
REMARK  117  A    between atoms: _279  and  _280
REMARK  118  A    between atoms: _279  and  _282
REMARK  119  A    between atoms: _282  and  _283
REMARK  120  A    between atoms: _283  and  _284
REMARK  121  A    between atoms: _284  and  _285
REMARK  122  A    between atoms: _294  and  _296
REMARK  123  A    between atoms: _296  and  _297
REMARK  124  A    between atoms: _296  and  _299
REMARK  125  A    between atoms: _299  and  _300
REMARK  126  A    between atoms: _305  and  _307
REMARK  127  A    between atoms: _307  and  _308
REMARK  128  A    between atoms: _307  and  _310
REMARK  129  A    between atoms: _310  and  _311
REMARK  130  A    between atoms: _311  and  _312
REMARK  131  A    between atoms: _312  and  _313
REMARK  132  A    between atoms: _322  and  _324
REMARK  133  A    between atoms: _324  and  _325
REMARK  134  A    between atoms: _324  and  _327
REMARK  135  A    between atoms: _327  and  _328
REMARK  136  A    between atoms: _331  and  _333
REMARK  137  A    between atoms: _333  and  _334
REMARK  138  A    between atoms: _333  and  _336
REMARK  139  A    between atoms: _336  and  _337
REMARK  140  A    between atoms: _340  and  _342
REMARK  141  A    between atoms: _342  and  _343
REMARK  142  A    between atoms: _342  and  _345
REMARK  143  A    between atoms: _345  and  _346
REMARK  144  A    between atoms: _349  and  _351
REMARK  145  A    between atoms: _351  and  _352
REMARK  146  A    between atoms: _354  and  _356
REMARK  147  A    between atoms: _356  and  _357
REMARK  148  A    between atoms: _360  and  _362
REMARK  149  A    between atoms: _362  and  _363
REMARK  150  A    between atoms: _362  and  _365
REMARK  151  A    between atoms: _365  and  _366
REMARK  152  A    between atoms: _369  and  _371
REMARK  153  A    between atoms: _371  and  _372
REMARK  154  A    between atoms: _371  and  _374
REMARK  155  A    between atoms: _374  and  _375
REMARK  156  A    between atoms: _378  and  _380
REMARK  157  A    between atoms: _380  and  _381
REMARK  158  A    between atoms: _380  and  _383
REMARK  159  A    between atoms: _383  and  _384
REMARK  160  A    between atoms: _387  and  _389
REMARK  161  A    between atoms: _389  and  _390
REMARK  162  A    between atoms: _389  and  _392
REMARK  163  A    between atoms: _395  and  _397
REMARK  164  A    between atoms: _397  and  _398
REMARK  165  A    between atoms: _397  and  _400
REMARK  166  A    between atoms: _400  and  _401
REMARK  167  A    between atoms: _401  and  _402
REMARK  168  A    between atoms: _402  and  _403
REMARK  169  A    between atoms: _403  and  _404
REMARK  170  A    between atoms: _408  and  _410
REMARK  171  A    between atoms: _410  and  _411
REMARK  172  A    between atoms: _410  and  _413
REMARK  173  A    between atoms: _413  and  _414
REMARK  174  A    between atoms: _414  and  _415
REMARK  175  A    between atoms: _417  and  _419
REMARK  176  A    between atoms: _419  and  _420
REMARK  177  A    between atoms: _419  and  _422
REMARK  178  A    between atoms: _422  and  _423
REMARK  179  A    between atoms: _426  and  _428
REMARK  180  A    between atoms: _428  and  _429
REMARK  181  A    between atoms: _431  and  _433
REMARK  182  A    between atoms: _433  and  _434
REMARK  183  A    between atoms: _436  and  _438
REMARK  184  A    between atoms: _438  and  _439
REMARK  185  A    between atoms: _438  and  _441
REMARK  186  A    between atoms: _441  and  _442
REMARK  187  A    between atoms: _445  and  _447
REMARK  188  A    between atoms: _447  and  _448
REMARK  189  A    between atoms: _450  and  _452
REMARK  190  A    between atoms: _452  and  _453
REMARK  191  A    between atoms: _455  and  _457
REMARK  192  A    between atoms: _457  and  _458
REMARK  193  A    between atoms: _457  and  _460
REMARK  194  A    between atoms: _460  and  _461
REMARK  195  A    between atoms: _467  and  _469
REMARK  196  A    between atoms: _469  and  _470
REMARK  197  A    between atoms: _469  and  _472
REMARK  198  A    between atoms: _472  and  _473
REMARK  199  A    between atoms: _476  and  _478
REMARK  200  A    between atoms: _478  and  _479
REMARK  201  A    between atoms: _478  and  _481
REMARK  202  A    between atoms: _484  and  _486
REMARK  203  A    between atoms: _486  and  _487
REMARK  204  A    between atoms: _486  and  _489
REMARK  205  A    between atoms: _489  and  _490
REMARK  206  A    between atoms: _493  and  _495
REMARK  207  A    between atoms: _495  and  _496
REMARK  208  A    between atoms: _495  and  _498
REMARK  209  A    between atoms: _498  and  _499
REMARK  210  A    between atoms: _503  and  _504
REMARK  211  A    between atoms: _509  and  _511
REMARK  212  A    between atoms: _511  and  _512
REMARK  213  A    between atoms: _511  and  _514
REMARK  214  A    between atoms: _517  and  _519
REMARK  215  A    between atoms: _519  and  _520
REMARK  216  A    between atoms: _519  and  _522
REMARK  217  A    between atoms: _522  and  _523
REMARK  218  A    between atoms: _528  and  _530
REMARK  219  A    between atoms: _530  and  _531
REMARK  220  A    between atoms: _530  and  _533
REMARK  221  A    between atoms: _533  and  _534
REMARK  222  A    between atoms: _537  and  _539
REMARK  223  A    between atoms: _539  and  _540
REMARK  224  A    between atoms: _539  and  _542
REMARK  225  A    between atoms: _542  and  _543
REMARK  226  A    between atoms: _546  and  _548
REMARK  227  A    between atoms: _548  and  _549
REMARK  228  A    between atoms: _551  and  _553
REMARK  229  A    between atoms: _553  and  _554
REMARK  230  A    between atoms: _553  and  _556
REMARK  231  A    between atoms: _556  and  _557
REMARK  232  A    between atoms: _557  and  _558
REMARK  233  A    between atoms: _558  and  _559
REMARK                            x       y       z     vdW  Elec       q    Type
REMARK                         _______ _______ _______ _____ _____    ______ ____
ROOT
ATOM      1  CA  LEU A   1      53.166  31.580  29.759  0.00  0.00    +0.133 C 
ENDROOT
BRANCH   1   2
ATOM      2  N   LEU A   1      53.998  31.804  28.595  0.00  0.00    -0.239 NA
ATOM      3  H   LEU A   1      54.818  31.183  28.443  0.00  0.00    +0.142 HD
ENDBRANCH   1   2
BRANCH   1   4
ATOM      4  C   LEU A   1      54.061  31.888  30.914  0.00  0.00    +0.224 C 
ATOM      5  O   LEU A   1      55.157  31.386  30.982  0.00  0.00    -0.287 OA
ENDBRANCH   1   4
BRANCH   1   6
ATOM      6  CB  LEU A   1      52.700  30.118  29.825  0.00  0.00    +0.025 C 
BRANCH   6   7
ATOM      7  CG  LEU A   1      51.839  29.616  28.661  0.00  0.00    +0.002 C 
ATOM      8  CD2 LEU A   1      51.296  28.251  28.963  0.00  0.00    +0.000 C 
ATOM      9  CD1 LEU A   1      50.716  30.601  28.461  0.00  0.00    +0.000 C 
ENDBRANCH   6   7
ENDBRANCH   1   6
TORSDOF 4
REMARK  Name = ../refined-set-2016/1a94/1a94_pocket.pdb
REMARK  233 active torsions:
REMARK  status: ('A' for Active; 'I' for Inactive)
REMARK    1  A    between atoms: _1  and  _3
REMARK    2  A    between atoms: _3  and  _4
REMARK    3  A    between atoms: _3  and  _6
REMARK    4  A    between atoms: _6  and  _7
REMARK    5  A    between atoms: _7  and  _8
REMARK    6  A    between atoms: _8  and  _9
REMARK    7  A    between atoms: _18  and  _20
REMARK    8  A    between atoms: _20  and  _21
REMARK    9  A    between atoms: _20  and  _23
REMARK   10  A    between atoms: _23  and  _24
REMARK   11  A    between atoms: _27  and  _29
REMARK   12  A    between atoms: _29  and  _30
REMARK   13  A    between atoms: _29  and  _32
REMARK   14  A    between atoms: _32  and  _33
REMARK   15  A    between atoms: _36  and  _38
REMARK   16  A    between atoms: _38  and  _39
REMARK   17  A    between atoms: _38  and  _41
REMARK   18  A    between atoms: _41  and  _42
REMARK   19  A    between atoms: _45  and  _47
REMARK   20  A    between atoms: _47  and  _48
REMARK   21  A    between atoms: _47  and  _50
REMARK   22  A    between atoms: _50  and  _51
REMARK   23  A    between atoms: _54  and  _56
REMARK   24  A    between atoms: _56  and  _57
REMARK   25  A    between atoms: _59  and  _61
REMARK   26  A    between atoms: _61  and  _62
REMARK   27  A    between atoms: _65  and  _67
REMARK   28  A    between atoms: _67  and  _68
REMARK   29  A    between atoms: _67  and  _70
REMARK   30  A    between atoms: _70  and  _71
REMARK   31  A    between atoms: _74  and  _76
REMARK   32  A    between atoms: _76  and  _77
REMARK   33  A    between atoms: _76  and  _79
REMARK   34  A    between atoms: _79  and  _80
REMARK   35  A    between atoms: _83  and  _85
REMARK   36  A    between atoms: _85  and  _86
REMARK   37  A    between atoms: _85  and  _88
REMARK   38  A    between atoms: _88  and  _89
REMARK   39  A    between atoms: _92  and  _94
REMARK   40  A    between atoms: _94  and  _95
REMARK   41  A    between atoms: _94  and  _97
REMARK   42  A    between atoms: _100  and  _102
REMARK   43  A    between atoms: _102  and  _103
REMARK   44  A    between atoms: _102  and  _105
REMARK   45  A    between atoms: _105  and  _106
REMARK   46  A    between atoms: _106  and  _107
REMARK   47  A    between atoms: _107  and  _108
REMARK   48  A    between atoms: _108  and  _109
REMARK   49  A    between atoms: _113  and  _115
REMARK   50  A    between atoms: _115  and  _116
REMARK   51  A    between atoms: _115  and  _118
REMARK   52  A    between atoms: _118  and  _119
REMARK   53  A    between atoms: _119  and  _120
REMARK   54  A    between atoms: _122  and  _124
REMARK   55  A    between atoms: _124  and  _125
REMARK   56  A    between atoms: _124  and  _127
REMARK   57  A    between atoms: _127  and  _128
REMARK   58  A    between atoms: _131  and  _133
REMARK   59  A    between atoms: _133  and  _134
REMARK   60  A    between atoms: _136  and  _138
REMARK   61  A    between atoms: _138  and  _139
REMARK   62  A    between atoms: _141  and  _143
REMARK   63  A    between atoms: _143  and  _144
REMARK   64  A    between atoms: _143  and  _146
REMARK   65  A    between atoms: _146  and  _147
REMARK   66  A    between atoms: _150  and  _152
REMARK   67  A    between atoms: _152  and  _153
REMARK   68  A    between atoms: _155  and  _157
REMARK   69  A    between atoms: _157  and  _158
REMARK   70  A    between atoms: _160  and  _162
REMARK   71  A    between atoms: _162  and  _163
REMARK   72  A    between atoms: _162  and  _165
REMARK   73  A    between atoms: _165  and  _166
REMARK   74  A    between atoms: _172  and  _174
REMARK   75  A    between atoms: _174  and  _175
REMARK   76  A    between atoms: _174  and  _177
REMARK   77  A    between atoms: _177  and  _178
REMARK   78  A    between atoms: _181  and  _183
REMARK   79  A    between atoms: _183  and  _184
REMARK   80  A    between atoms: _183  and  _186
REMARK   81  A    between atoms: _189  and  _191
REMARK   82  A    between atoms: _191  and  _192
REMARK   83  A    between atoms: _191  and  _194
REMARK   84  A    between atoms: _194  and  _195
REMARK   85  A    between atoms: _195  and  _196
REMARK   86  A    between atoms: _201  and  _203
REMARK   87  A    between atoms: _203  and  _204
REMARK   88  A    between atoms: _203  and  _206
REMARK   89  A    between atoms: _206  and  _207
REMARK   90  A    between atoms: _210  and  _212
REMARK   91  A    between atoms: _212  and  _213
REMARK   92  A    between atoms: _212  and  _215
REMARK   93  A    between atoms: _215  and  _216
REMARK   94  A    between atoms: _219  and  _221
REMARK   95  A    between atoms: _221  and  _222
REMARK   96  A    between atoms: _221  and  _224
REMARK   97  A    between atoms: _224  and  _225
REMARK   98  A    between atoms: _229  and  _230
REMARK   99  A    between atoms: _235  and  _237
REMARK  100  A    between atoms: _237  and  _238
REMARK  101  A    between atoms: _237  and  _240
REMARK  102  A    between atoms: _243  and  _245
REMARK  103  A    between atoms: _245  and  _246
REMARK  104  A    between atoms: _245  and  _248
REMARK  105  A    between atoms: _248  and  _249
REMARK  106  A    between atoms: _254  and  _256
REMARK  107  A    between atoms: _256  and  _257
REMARK  108  A    between atoms: _256  and  _259
REMARK  109  A    between atoms: _259  and  _260
REMARK  110  A    between atoms: _263  and  _265
REMARK  111  A    between atoms: _265  and  _266
REMARK  112  A    between atoms: _265  and  _268
REMARK  113  A    between atoms: _268  and  _269
REMARK  114  A    between atoms: _272  and  _274
REMARK  115  A    between atoms: _274  and  _275
REMARK  116  A    between atoms: _277  and  _279
REMARK  117  A    between atoms: _279  and  _280
REMARK  118  A    between atoms: _279  and  _282
REMARK  119  A    between atoms: _282  and  _283
REMARK  120  A    between atoms: _283  and  _284
REMARK  121  A    between atoms: _284  and  _285
REMARK  122  A    between atoms: _294  and  _296
REMARK  123  A    between atoms: _296  and  _297
REMARK  124  A    between atoms: _296  and  _299
REMARK  125  A    between atoms: _299  and  _300
REMARK  126  A    between atoms: _305  and  _307
REMARK  127  A    between atoms: _307  and  _308
REMARK  128  A    between atoms: _307  and  _310
REMARK  129  A    between atoms: _310  and  _311
REMARK  130  A    between atoms: _311  and  _312
REMARK  131  A    between atoms: _312  and  _313
REMARK  132  A    between atoms: _322  and  _324
REMARK  133  A    between atoms: _324  and  _325
REMARK  134  A    between atoms: _324  and  _327
REMARK  135  A    between atoms: _327  and  _328
REMARK  136  A    between atoms: _331  and  _333
REMARK  137  A    between atoms: _333  and  _334
REMARK  138  A    between atoms: _333  and  _336
REMARK  139  A    between atoms: _336  and  _337
REMARK  140  A    between atoms: _340  and  _342
REMARK  141  A    between atoms: _342  and  _343
REMARK  142  A    between atoms: _342  and  _345
REMARK  143  A    between atoms: _345  and  _346
REMARK  144  A    between atoms: _349  and  _351
REMARK  145  A    between atoms: _351  and  _352
REMARK  146  A    between atoms: _354  and  _356
REMARK  147  A    between atoms: _356  and  _357
REMARK  148  A    between atoms: _360  and  _362
REMARK  149  A    between atoms: _362  and  _363
REMARK  150  A    between atoms: _362  and  _365
REMARK  151  A    between atoms: _365  and  _366
REMARK  152  A    between atoms: _369  and  _371
REMARK  153  A    between atoms: _371  and  _372
REMARK  154  A    between atoms: _371  and  _374
REMARK  155  A    between atoms: _374  and  _375
REMARK  156  A    between atoms: _378  and  _380
REMARK  157  A    between atoms: _380  and  _381
REMARK  158  A    between atoms: _380  and  _383
REMARK  159  A    between atoms: _383  and  _384
REMARK  160  A    between atoms: _387  and  _389
REMARK  161  A    between atoms: _389  and  _390
REMARK  162  A    between atoms: _389  and  _392
REMARK  163  A    between atoms: _395  and  _397
REMARK  164  A    between atoms: _397  and  _398
REMARK  165  A    between atoms: _397  and  _400
REMARK  166  A    between atoms: _400  and  _401
REMARK  167  A    between atoms: _401  and  _402
REMARK  168  A    between atoms: _402  and  _403
REMARK  169  A    between atoms: _403  and  _404
REMARK  170  A    between atoms: _408  and  _410
REMARK  171  A    between atoms: _410  and  _411
REMARK  172  A    between atoms: _410  and  _413
REMARK  173  A    between atoms: _413  and  _414
REMARK  174  A    between atoms: _414  and  _415
REMARK  175  A    between atoms: _417  and  _419
REMARK  176  A    between atoms: _419  and  _420
REMARK  177  A    between atoms: _419  and  _422
REMARK  178  A    between atoms: _422  and  _423
REMARK  179  A    between atoms: _426  and  _428
REMARK  180  A    between atoms: _428  and  _429
REMARK  181  A    between atoms: _431  and  _433
REMARK  182  A    between atoms: _433  and  _434
REMARK  183  A    between atoms: _436  and  _438
REMARK  184  A    between atoms: _438  and  _439
REMARK  185  A    between atoms: _438  and  _441
REMARK  186  A    between atoms: _441  and  _442
REMARK  187  A    between atoms: _445  and  _447
REMARK  188  A    between atoms: _447  and  _448
REMARK  189  A    between atoms: _450  and  _452
REMARK  190  A    between atoms: _452  and  _453
REMARK  191  A    between atoms: _455  and  _457
REMARK  192  A    between atoms: _457  and  _458
REMARK  193  A    between atoms: _457  and  _460
REMARK  194  A    between atoms: _460  and  _461
REMARK  195  A    between atoms: _467  and  _469
REMARK  196  A    between atoms: _469  and  _470
REMARK  197  A    between atoms: _469  and  _472
REMARK  198  A    between atoms: _472  and  _473
REMARK  199  A    between atoms: _476  and  _478
REMARK  200  A    between atoms: _478  and  _479
REMARK  201  A    between atoms: _478  and  _481
REMARK  202  A    between atoms: _484  and  _486
REMARK  203  A    between atoms: _486  and  _487
REMARK  204  A    between atoms: _486  and  _489
REMARK  205  A    between atoms: _489  and  _490
REMARK  206  A    between atoms: _493  and  _495
REMARK  207  A    between atoms: _495  and  _496
REMARK  208  A    between atoms: _495  and  _498
REMARK  209  A    between atoms: _498  and  _499
REMARK  210  A    between atoms: _503  and  _504
REMARK  211  A    between atoms: _509  and  _511
REMARK  212  A    between atoms: _511  and  _512
REMARK  213  A    between atoms: _511  and  _514
REMARK  214  A    between atoms: _517  and  _519
REMARK  215  A    between atoms: _519  and  _520
REMARK  216  A    between atoms: _519  and  _522
REMARK  217  A    between atoms: _522  and  _523
REMARK  218  A    between atoms: _528  and  _530
REMARK  219  A    between atoms: _530  and  _531
REMARK  220  A    between atoms: _530  and  _533
REMARK  221  A    between atoms: _533  and  _534
REMARK  222  A    between atoms: _537  and  _539
REMARK  223  A    between atoms: _539  and  _540
REMARK  224  A    between atoms: _539  and  _542
REMARK  225  A    between atoms: _542  and  _543
REMARK  226  A    between atoms: _546  and  _548
REMARK  227  A    between atoms: _548  and  _549
REMARK  228  A    between atoms: _551  and  _553
REMARK  229  A    between atoms: _553  and  _554
REMARK  230  A    between atoms: _553  and  _556
REMARK  231  A    between atoms: _556  and  _557
REMARK  232  A    between atoms: _557  and  _558
REMARK  233  A    between atoms: _558  and  _559
REMARK                            x       y       z     vdW  Elec       q    Type
REMARK                         _______ _______ _______ _____ _____    ______ ____
ROOT
ATOM      1  CA  ILE A   5      61.166  26.262  29.552  0.00  0.00    +0.149 C 
ENDROOT
BRANCH   1   4
ATOM      2  C   ASN A   4      62.400  27.517  31.246  0.00  0.00    +0.241 C 
ATOM      3  O   ASN A   4      63.423  26.858  31.103  0.00  0.00    -0.273 OA
ATOM      4  N   ILE A   5      61.295  27.285  30.549  0.00  0.00    -0.297 N 
ATOM      5  H   ILE A   5      60.467  27.885  30.738  0.00  0.00    +0.150 HD
BRANCH   2   6
ATOM      6  CA  ASN A   4      62.323  28.628  32.323  0.00  0.00    +0.158 C 
BRANCH   6   9
ATOM      7  C   VAL A   3      62.006  27.090  34.188  0.00  0.00    +0.241 C 
ATOM      8  O   VAL A   3      60.850  26.831  33.877  0.00  0.00    -0.273 OA
ATOM      9  N   ASN A   4      62.782  27.951  33.526  0.00  0.00    -0.297 N 
ATOM     10  H   ASN A   4      63.741  28.143  33.880  0.00  0.00    +0.150 HD
BRANCH   7  11
ATOM     11  CA  VAL A   3      62.642  26.389  35.369  0.00  0.00    +0.149 C 
BRANCH  11  14
ATOM     12  C   PRO A   2      61.780  26.006  37.648  0.00  0.00    +0.241 C 
ATOM     13  O   PRO A   2      62.870  26.277  38.150  0.00  0.00    -0.273 OA
ATOM     14  N   VAL A   3      61.573  26.011  36.327  0.00  0.00    -0.297 N 
ATOM     15  H   VAL A   3      60.637  25.743  35.961  0.00  0.00    +0.150 HD
BRANCH  12  19
ATOM     16  C   THR A   1      58.908  27.105  37.672  0.00  0.00    +0.244 C 
ATOM     17  O   THR A   1      59.585  28.094  38.004  0.00  0.00    -0.273 OA
ATOM     18  N   PRO A   2      59.325  25.848  37.919  0.00  0.00    -0.272 N 
ATOM     19  CA  PRO A   2      60.617  25.599  38.543  0.00  0.00    +0.152 C 
ATOM     20  CB  PRO A   2      60.588  24.087  38.788  0.00  0.00    +0.031 C 
ATOM     21  CG  PRO A   2      59.664  23.569  37.734  0.00  0.00    +0.024 C 
ATOM     22  CD  PRO A   2      58.576  24.585  37.738  0.00  0.00    +0.094 C 
BRANCH  16  23
ATOM     23  CA  THR A   1      57.509  27.258  37.000  0.00  0.00    +0.172 C 
BRANCH  23  24
ATOM     24  N   THR A   1      56.843  28.440  37.556  0.00  0.00    -0.236 NA
ATOM     25  H   THR A   1      56.792  29.302  36.976  0.00  0.00    +0.142 HD
ENDBRANCH  23  24
BRANCH  23  26
ATOM     26  CB  THR A   1      57.731  27.392  35.478  0.00  0.00    +0.135 C 
ATOM     27  CG2 THR A   1      58.523  28.621  35.169  0.00  0.00    +0.034 C 
BRANCH  26  28
ATOM     28  OG1 THR A   1      58.475  26.260  35.001  0.00  0.00    -0.383 OA
ATOM     29  HG1 THR A   1      59.351  26.225  35.461  0.00  0.00    +0.210 HD
ENDBRANCH  26  28
ENDBRANCH  23  26
ENDBRANCH  16  23
ENDBRANCH  12  19
ENDBRANCH  11  14
BRANCH  11  30
ATOM     30  CB  VAL A   3      63.391  25.164  34.693  0.00  0.00    +0.027 C 
ATOM     31  CG2 VAL A   3      64.809  25.064  35.133  0.00  0.00    +0.002 C 
ATOM     32  CG1 VAL A   3      62.678  23.910  34.908  0.00  0.00    +0.002 C 
ENDBRANCH  11  30
ENDBRANCH   7  11
ENDBRANCH   6   9
BRANCH   6  33
ATOM     33  CB  ASN A   4      63.242  29.812  31.965  0.00  0.00    +0.114 C 
BRANCH  33  34
ATOM     34  CG  ASN A   4      63.105  30.991  32.925  0.00  0.00    +0.222 C 
ATOM     35  OD1 ASN A   4      62.463  30.909  33.942  0.00  0.00    -0.275 OA
ATOM     36  ND2 ASN A   4      63.732  32.083  32.592  0.00  0.00    -0.329 N 
ATOM     37 HD21 ASN A   4      63.687  32.918  33.211  0.00  0.00    +0.145 HD
ATOM     38 HD22 ASN A   4      64.277  32.120  31.707  0.00  0.00    +0.145 HD
ENDBRANCH  33  34
ENDBRANCH   6  33
ENDBRANCH   2   6
ENDBRANCH   1   4
BRANCH   1  39
ATOM     39  C   ILE A   5      60.816  26.786  28.167  0.00  0.00    +0.241 C 
ATOM     40  O   ILE A   5      59.777  27.415  27.972  0.00  0.00    -0.273 OA
ATOM     41  N   ILE A   6      61.706  26.571  27.203  0.00  0.00    -0.297 N 
ATOM     42  H   ILE A   6      62.604  26.099  27.434  0.00  0.00    +0.150 HD
BRANCH  41  43
ATOM     43  CA  ILE A   6      61.449  26.983  25.832  0.00  0.00    +0.149 C 
BRANCH  43  44
ATOM     44  C   ILE A   6      60.842  25.740  25.172  0.00  0.00    +0.241 C 
ATOM     45  O   ILE A   6      61.540  24.719  25.027  0.00  0.00    -0.273 OA
ATOM     46  N   GLY A   7      59.592  25.840  24.723  0.00  0.00    -0.295 N 
ATOM     47  H   GLY A   7      59.091  26.746  24.819  0.00  0.00    +0.150 HD
BRANCH  46  48
ATOM     48  CA  GLY A   7      58.912  24.719  24.104  0.00  0.00    +0.176 C 
BRANCH  48  49
ATOM     49  C   GLY A   7      58.956  24.680  22.593  0.00  0.00    +0.243 C 
ATOM     50  N   ARG A   8      58.178  23.774  22.032  0.00  0.00    -0.298 N 
ATOM     51  H   ARG A   8      57.583  23.174  22.639  0.00  0.00    +0.150 HD
ATOM     52  O   GLY A   7      59.664  25.459  21.946  0.00  0.00    -0.273 OA
BRANCH  50  53
ATOM     53  CA  ARG A   8      58.127  23.589  20.596  0.00  0.00    +0.137 C 
BRANCH  53  54
ATOM     54  C   ARG A   8      57.529  24.776  19.819  0.00  0.00    +0.227 C 
ATOM     55  O   ARG A   8      57.790  24.919  18.619  0.00  0.00    -0.286 OA
ENDBRANCH  53  54
BRANCH  53  56
ATOM     56  CB  ARG A   8      57.337  22.318  20.221  0.00  0.00    +0.031 C 
BRANCH  56  57
ATOM     57  CG  ARG A   8      57.927  20.955  20.629  0.00  0.00    +0.045 C 
BRANCH  57  58
ATOM     58  CD  ARG A   8      57.182  19.766  20.005  0.00  0.00    +0.174 C 
BRANCH  58  59
ATOM     59  NE  ARG A   8      55.791  19.705  20.404  0.00  0.00    -0.265 N 
ATOM     60  HE  ARG A   8      55.572  19.297  21.335  0.00  0.00    +0.259 HD
ATOM     61  CZ  ARG A   8      54.776  20.134  19.662  0.00  0.00    +0.342 C 
ATOM     62  NH2 ARG A   8      53.542  20.167  20.147  0.00  0.00    -0.292 N 
ATOM     63 HH21 ARG A   8      53.358  19.854  21.122  0.00  0.00    +0.255 HD
ATOM     64 HH22 ARG A   8      52.759  20.506  19.553  0.00  0.00    +0.255 HD
ATOM     65  NH1 ARG A   8      55.001  20.642  18.463  0.00  0.00    -0.292 N 
ATOM     66 HH11 ARG A   8      55.973  20.706  18.100  0.00  0.00    +0.255 HD
ATOM     67 HH12 ARG A   8      54.206  20.978  17.883  0.00  0.00    +0.255 HD
ENDBRANCH  58  59
ENDBRANCH  57  58
ENDBRANCH  56  57
ENDBRANCH  53  56
ENDBRANCH  50  53
ENDBRANCH  48  49
ENDBRANCH  46  48
ENDBRANCH  43  44
BRANCH  43  68
ATOM     68  CB  ILE A   6      62.745  27.307  25.081  0.00  0.00    +0.027 C 
ATOM     69  CG2 ILE A   6      62.441  27.600  23.644  0.00  0.00    +0.002 C 
BRANCH  68  70
ATOM     70  CG1 ILE A   6      63.530  28.413  25.758  0.00  0.00    +0.002 C 
ATOM     71  CD1 ILE A   6      62.724  29.554  26.215  0.00  0.00    +0.000 C 
ENDBRANCH  68  70
ENDBRANCH  43  68
ENDBRANCH  41  43
ENDBRANCH   1  39
BRANCH   1  72
ATOM     72  CB  ILE A   5      60.053  25.316  30.018  0.00  0.00    +0.027 C 
ATOM     73  CG2 ILE A   5      59.604  24.390  28.905  0.00  0.00    +0.002 C 
BRANCH  72  74
ATOM     74  CG1 ILE A   5      60.522  24.582  31.273  0.00  0.00    +0.002 C 
ATOM     75  CD1 ILE A   5      59.436  23.957  32.044  0.00  0.00    +0.000 C 
ENDBRANCH  72  74
ENDBRANCH   1  72
TORSDOF 28
REMARK  Name = ../refined-set-2016/1a94/1a94_pocket.pdb
REMARK  233 active torsions:
REMARK  status: ('A' for Active; 'I' for Inactive)
REMARK    1  A    between atoms: _1  and  _3
REMARK    2  A    between atoms: _3  and  _4
REMARK    3  A    between atoms: _3  and  _6
REMARK    4  A    between atoms: _6  and  _7
REMARK    5  A    between atoms: _7  and  _8
REMARK    6  A    between atoms: _8  and  _9
REMARK    7  A    between atoms: _18  and  _20
REMARK    8  A    between atoms: _20  and  _21
REMARK    9  A    between atoms: _20  and  _23
REMARK   10  A    between atoms: _23  and  _24
REMARK   11  A    between atoms: _27  and  _29
REMARK   12  A    between atoms: _29  and  _30
REMARK   13  A    between atoms: _29  and  _32
REMARK   14  A    between atoms: _32  and  _33
REMARK   15  A    between atoms: _36  and  _38
REMARK   16  A    between atoms: _38  and  _39
REMARK   17  A    between atoms: _38  and  _41
REMARK   18  A    between atoms: _41  and  _42
REMARK   19  A    between atoms: _45  and  _47
REMARK   20  A    between atoms: _47  and  _48
REMARK   21  A    between atoms: _47  and  _50
REMARK   22  A    between atoms: _50  and  _51
REMARK   23  A    between atoms: _54  and  _56
REMARK   24  A    between atoms: _56  and  _57
REMARK   25  A    between atoms: _59  and  _61
REMARK   26  A    between atoms: _61  and  _62
REMARK   27  A    between atoms: _65  and  _67
REMARK   28  A    between atoms: _67  and  _68
REMARK   29  A    between atoms: _67  and  _70
REMARK   30  A    between atoms: _70  and  _71
REMARK   31  A    between atoms: _74  and  _76
REMARK   32  A    between atoms: _76  and  _77
REMARK   33  A    between atoms: _76  and  _79
REMARK   34  A    between atoms: _79  and  _80
REMARK   35  A    between atoms: _83  and  _85
REMARK   36  A    between atoms: _85  and  _86
REMARK   37  A    between atoms: _85  and  _88
REMARK   38  A    between atoms: _88  and  _89
REMARK   39  A    between atoms: _92  and  _94
REMARK   40  A    between atoms: _94  and  _95
REMARK   41  A    between atoms: _94  and  _97
REMARK   42  A    between atoms: _100  and  _102
REMARK   43  A    between atoms: _102  and  _103
REMARK   44  A    between atoms: _102  and  _105
REMARK   45  A    between atoms: _105  and  _106
REMARK   46  A    between atoms: _106  and  _107
REMARK   47  A    between atoms: _107  and  _108
REMARK   48  A    between atoms: _108  and  _109
REMARK   49  A    between atoms: _113  and  _115
REMARK   50  A    between atoms: _115  and  _116
REMARK   51  A    between atoms: _115  and  _118
REMARK   52  A    between atoms: _118  and  _119
REMARK   53  A    between atoms: _119  and  _120
REMARK   54  A    between atoms: _122  and  _124
REMARK   55  A    between atoms: _124  and  _125
REMARK   56  A    between atoms: _124  and  _127
REMARK   57  A    between atoms: _127  and  _128
REMARK   58  A    between atoms: _131  and  _133
REMARK   59  A    between atoms: _133  and  _134
REMARK   60  A    between atoms: _136  and  _138
REMARK   61  A    between atoms: _138  and  _139
REMARK   62  A    between atoms: _141  and  _143
REMARK   63  A    between atoms: _143  and  _144
REMARK   64  A    between atoms: _143  and  _146
REMARK   65  A    between atoms: _146  and  _147
REMARK   66  A    between atoms: _150  and  _152
REMARK   67  A    between atoms: _152  and  _153
REMARK   68  A    between atoms: _155  and  _157
REMARK   69  A    between atoms: _157  and  _158
REMARK   70  A    between atoms: _160  and  _162
REMARK   71  A    between atoms: _162  and  _163
REMARK   72  A    between atoms: _162  and  _165
REMARK   73  A    between atoms: _165  and  _166
REMARK   74  A    between atoms: _172  and  _174
REMARK   75  A    between atoms: _174  and  _175
REMARK   76  A    between atoms: _174  and  _177
REMARK   77  A    between atoms: _177  and  _178
REMARK   78  A    between atoms: _181  and  _183
REMARK   79  A    between atoms: _183  and  _184
REMARK   80  A    between atoms: _183  and  _186
REMARK   81  A    between atoms: _189  and  _191
REMARK   82  A    between atoms: _191  and  _192
REMARK   83  A    between atoms: _191  and  _194
REMARK   84  A    between atoms: _194  and  _195
REMARK   85  A    between atoms: _195  and  _196
REMARK   86  A    between atoms: _201  and  _203
REMARK   87  A    between atoms: _203  and  _204
REMARK   88  A    between atoms: _203  and  _206
REMARK   89  A    between atoms: _206  and  _207
REMARK   90  A    between atoms: _210  and  _212
REMARK   91  A    between atoms: _212  and  _213
REMARK   92  A    between atoms: _212  and  _215
REMARK   93  A    between atoms: _215  and  _216
REMARK   94  A    between atoms: _219  and  _221
REMARK   95  A    between atoms: _221  and  _222
REMARK   96  A    between atoms: _221  and  _224
REMARK   97  A    between atoms: _224  and  _225
REMARK   98  A    between atoms: _229  and  _230
REMARK   99  A    between atoms: _235  and  _237
REMARK  100  A    between atoms: _237  and  _238
REMARK  101  A    between atoms: _237  and  _240
REMARK  102  A    between atoms: _243  and  _245
REMARK  103  A    between atoms: _245  and  _246
REMARK  104  A    between atoms: _245  and  _248
REMARK  105  A    between atoms: _248  and  _249
REMARK  106  A    between atoms: _254  and  _256
REMARK  107  A    between atoms: _256  and  _257
REMARK  108  A    between atoms: _256  and  _259
REMARK  109  A    between atoms: _259  and  _260
REMARK  110  A    between atoms: _263  and  _265
REMARK  111  A    between atoms: _265  and  _266
REMARK  112  A    between atoms: _265  and  _268
REMARK  113  A    between atoms: _268  and  _269
REMARK  114  A    between atoms: _272  and  _274
REMARK  115  A    between atoms: _274  and  _275
REMARK  116  A    between atoms: _277  and  _279
REMARK  117  A    between atoms: _279  and  _280
REMARK  118  A    between atoms: _279  and  _282
REMARK  119  A    between atoms: _282  and  _283
REMARK  120  A    between atoms: _283  and  _284
REMARK  121  A    between atoms: _284  and  _285
REMARK  122  A    between atoms: _294  and  _296
REMARK  123  A    between atoms: _296  and  _297
REMARK  124  A    between atoms: _296  and  _299
REMARK  125  A    between atoms: _299  and  _300
REMARK  126  A    between atoms: _305  and  _307
REMARK  127  A    between atoms: _307  and  _308
REMARK  128  A    between atoms: _307  and  _310
REMARK  129  A    between atoms: _310  and  _311
REMARK  130  A    between atoms: _311  and  _312
REMARK  131  A    between atoms: _312  and  _313
REMARK  132  A    between atoms: _322  and  _324
REMARK  133  A    between atoms: _324  and  _325
REMARK  134  A    between atoms: _324  and  _327
REMARK  135  A    between atoms: _327  and  _328
REMARK  136  A    between atoms: _331  and  _333
REMARK  137  A    between atoms: _333  and  _334
REMARK  138  A    between atoms: _333  and  _336
REMARK  139  A    between atoms: _336  and  _337
REMARK  140  A    between atoms: _340  and  _342
REMARK  141  A    between atoms: _342  and  _343
REMARK  142  A    between atoms: _342  and  _345
REMARK  143  A    between atoms: _345  and  _346
REMARK  144  A    between atoms: _349  and  _351
REMARK  145  A    between atoms: _351  and  _352
REMARK  146  A    between atoms: _354  and  _356
REMARK  147  A    between atoms: _356  and  _357
REMARK  148  A    between atoms: _360  and  _362
REMARK  149  A    between atoms: _362  and  _363
REMARK  150  A    between atoms: _362  and  _365
REMARK  151  A    between atoms: _365  and  _366
REMARK  152  A    between atoms: _369  and  _371
REMARK  153  A    between atoms: _371  and  _372
REMARK  154  A    between atoms: _371  and  _374
REMARK  155  A    between atoms: _374  and  _375
REMARK  156  A    between atoms: _378  and  _380
REMARK  157  A    between atoms: _380  and  _381
REMARK  158  A    between atoms: _380  and  _383
REMARK  159  A    between atoms: _383  and  _384
REMARK  160  A    between atoms: _387  and  _389
REMARK  161  A    between atoms: _389  and  _390
REMARK  162  A    between atoms: _389  and  _392
REMARK  163  A    between atoms: _395  and  _397
REMARK  164  A    between atoms: _397  and  _398
REMARK  165  A    between atoms: _397  and  _400
REMARK  166  A    between atoms: _400  and  _401
REMARK  167  A    between atoms: _401  and  _402
REMARK  168  A    between atoms: _402  and  _403
REMARK  169  A    between atoms: _403  and  _404
REMARK  170  A    between atoms: _408  and  _410
REMARK  171  A    between atoms: _410  and  _411
REMARK  172  A    between atoms: _410  and  _413
REMARK  173  A    between atoms: _413  and  _414
REMARK  174  A    between atoms: _414  and  _415
REMARK  175  A    between atoms: _417  and  _419
REMARK  176  A    between atoms: _419  and  _420
REMARK  177  A    between atoms: _419  and  _422
REMARK  178  A    between atoms: _422  and  _423
REMARK  179  A    between atoms: _426  and  _428
REMARK  180  A    between atoms: _428  and  _429
REMARK  181  A    between atoms: _431  and  _433
REMARK  182  A    between atoms: _433  and  _434
REMARK  183  A    between atoms: _436  and  _438
REMARK  184  A    between atoms: _438  and  _439
REMARK  185  A    between atoms: _438  and  _441
REMARK  186  A    between atoms: _441  and  _442
REMARK  187  A    between atoms: _445  and  _447
REMARK  188  A    between atoms: _447  and  _448
REMARK  189  A    between atoms: _450  and  _452
REMARK  190  A    between atoms: _452  and  _453
REMARK  191  A    between atoms: _455  and  _457
REMARK  192  A    between atoms: _457  and  _458
REMARK  193  A    between atoms: _457  and  _460
REMARK  194  A    between atoms: _460  and  _461
REMARK  195  A    between atoms: _467  and  _469
REMARK  196  A    between atoms: _469  and  _470
REMARK  197  A    between atoms: _469  and  _472
REMARK  198  A    between atoms: _472  and  _473
REMARK  199  A    between atoms: _476  and  _478
REMARK  200  A    between atoms: _478  and  _479
REMARK  201  A    between atoms: _478  and  _481
REMARK  202  A    between atoms: _484  and  _486
REMARK  203  A    between atoms: _486  and  _487
REMARK  204  A    between atoms: _486  and  _489
REMARK  205  A    between atoms: _489  and  _490
REMARK  206  A    between atoms: _493  and  _495
REMARK  207  A    between atoms: _495  and  _496
REMARK  208  A    between atoms: _495  and  _498
REMARK  209  A    between atoms: _498  and  _499
REMARK  210  A    between atoms: _503  and  _504
REMARK  211  A    between atoms: _509  and  _511
REMARK  212  A    between atoms: _511  and  _512
REMARK  213  A    between atoms: _511  and  _514
REMARK  214  A    between atoms: _517  and  _519
REMARK  215  A    between atoms: _519  and  _520
REMARK  216  A    between atoms: _519  and  _522
REMARK  217  A    between atoms: _522  and  _523
REMARK  218  A    between atoms: _528  and  _530
REMARK  219  A    between atoms: _530  and  _531
REMARK  220  A    between atoms: _530  and  _533
REMARK  221  A    between atoms: _533  and  _534
REMARK  222  A    between atoms: _537  and  _539
REMARK  223  A    between atoms: _539  and  _540
REMARK  224  A    between atoms: _539  and  _542
REMARK  225  A    between atoms: _542  and  _543
REMARK  226  A    between atoms: _546  and  _548
REMARK  227  A    between atoms: _548  and  _549
REMARK  228  A    between atoms: _551  and  _553
REMARK  229  A    between atoms: _553  and  _554
REMARK  230  A    between atoms: _553  and  _556
REMARK  231  A    between atoms: _556  and  _557
REMARK  232  A    between atoms: _557  and  _558
REMARK  233  A    between atoms: _558  and  _559
REMARK                            x       y       z     vdW  Elec       q    Type
REMARK                         _______ _______ _______ _____ _____    ______ ____
ROOT
ATOM      1  O   HOH     1      65.354   6.987  34.249  0.00  0.00    +0.000 OA
ENDROOT
TORSDOF 0
REMARK  Name = ../refined-set-2016/1a94/1a94_pocket.pdb
REMARK  233 active torsions:
REMARK  status: ('A' for Active; 'I' for Inactive)
REMARK    1  A    between atoms: _1  and  _3
REMARK    2  A    between atoms: _3  and  _4
REMARK    3  A    between atoms: _3  and  _6
REMARK    4  A    between atoms: _6  and  _7
REMARK    5  A    between atoms: _7  and  _8
REMARK    6  A    between atoms: _8  and  _9
REMARK    7  A    between atoms: _18  and  _20
REMARK    8  A    between atoms: _20  and  _21
REMARK    9  A    between atoms: _20  and  _23
REMARK   10  A    between atoms: _23  and  _24
REMARK   11  A    between atoms: _27  and  _29
REMARK   12  A    between atoms: _29  and  _30
REMARK   13  A    between atoms: _29  and  _32
REMARK   14  A    between atoms: _32  and  _33
REMARK   15  A    between atoms: _36  and  _38
REMARK   16  A    between atoms: _38  and  _39
REMARK   17  A    between atoms: _38  and  _41
REMARK   18  A    between atoms: _41  and  _42
REMARK   19  A    between atoms: _45  and  _47
REMARK   20  A    between atoms: _47  and  _48
REMARK   21  A    between atoms: _47  and  _50
REMARK   22  A    between atoms: _50  and  _51
REMARK   23  A    between atoms: _54  and  _56
REMARK   24  A    between atoms: _56  and  _57
REMARK   25  A    between atoms: _59  and  _61
REMARK   26  A    between atoms: _61  and  _62
REMARK   27  A    between atoms: _65  and  _67
REMARK   28  A    between atoms: _67  and  _68
REMARK   29  A    between atoms: _67  and  _70
REMARK   30  A    between atoms: _70  and  _71
REMARK   31  A    between atoms: _74  and  _76
REMARK   32  A    between atoms: _76  and  _77
REMARK   33  A    between atoms: _76  and  _79
REMARK   34  A    between atoms: _79  and  _80
REMARK   35  A    between atoms: _83  and  _85
REMARK   36  A    between atoms: _85  and  _86
REMARK   37  A    between atoms: _85  and  _88
REMARK   38  A    between atoms: _88  and  _89
REMARK   39  A    between atoms: _92  and  _94
REMARK   40  A    between atoms: _94  and  _95
REMARK   41  A    between atoms: _94  and  _97
REMARK   42  A    between atoms: _100  and  _102
REMARK   43  A    between atoms: _102  and  _103
REMARK   44  A    between atoms: _102  and  _105
REMARK   45  A    between atoms: _105  and  _106
REMARK   46  A    between atoms: _106  and  _107
REMARK   47  A    between atoms: _107  and  _108
REMARK   48  A    between atoms: _108  and  _109
REMARK   49  A    between atoms: _113  and  _115
REMARK   50  A    between atoms: _115  and  _116
REMARK   51  A    between atoms: _115  and  _118
REMARK   52  A    between atoms: _118  and  _119
REMARK   53  A    between atoms: _119  and  _120
REMARK   54  A    between atoms: _122  and  _124
REMARK   55  A    between atoms: _124  and  _125
REMARK   56  A    between atoms: _124  and  _127
REMARK   57  A    between atoms: _127  and  _128
REMARK   58  A    between atoms: _131  and  _133
REMARK   59  A    between atoms: _133  and  _134
REMARK   60  A    between atoms: _136  and  _138
REMARK   61  A    between atoms: _138  and  _139
REMARK   62  A    between atoms: _141  and  _143
REMARK   63  A    between atoms: _143  and  _144
REMARK   64  A    between atoms: _143  and  _146
REMARK   65  A    between atoms: _146  and  _147
REMARK   66  A    between atoms: _150  and  _152
REMARK   67  A    between atoms: _152  and  _153
REMARK   68  A    between atoms: _155  and  _157
REMARK   69  A    between atoms: _157  and  _158
REMARK   70  A    between atoms: _160  and  _162
REMARK   71  A    between atoms: _162  and  _163
REMARK   72  A    between atoms: _162  and  _165
REMARK   73  A    between atoms: _165  and  _166
REMARK   74  A    between atoms: _172  and  _174
REMARK   75  A    between atoms: _174  and  _175
REMARK   76  A    between atoms: _174  and  _177
REMARK   77  A    between atoms: _177  and  _178
REMARK   78  A    between atoms: _181  and  _183
REMARK   79  A    between atoms: _183  and  _184
REMARK   80  A    between atoms: _183  and  _186
REMARK   81  A    between atoms: _189  and  _191
REMARK   82  A    between atoms: _191  and  _192
REMARK   83  A    between atoms: _191  and  _194
REMARK   84  A    between atoms: _194  and  _195
REMARK   85  A    between atoms: _195  and  _196
REMARK   86  A    between atoms: _201  and  _203
REMARK   87  A    between atoms: _203  and  _204
REMARK   88  A    between atoms: _203  and  _206
REMARK   89  A    between atoms: _206  and  _207
REMARK   90  A    between atoms: _210  and  _212
REMARK   91  A    between atoms: _212  and  _213
REMARK   92  A    between atoms: _212  and  _215
REMARK   93  A    between atoms: _215  and  _216
REMARK   94  A    between atoms: _219  and  _221
REMARK   95  A    between atoms: _221  and  _222
REMARK   96  A    between atoms: _221  and  _224
REMARK   97  A    between atoms: _224  and  _225
REMARK   98  A    between atoms: _229  and  _230
REMARK   99  A    between atoms: _235  and  _237
REMARK  100  A    between atoms: _237  and  _238
REMARK  101  A    between atoms: _237  and  _240
REMARK  102  A    between atoms: _243  and  _245
REMARK  103  A    between atoms: _245  and  _246
REMARK  104  A    between atoms: _245  and  _248
REMARK  105  A    between atoms: _248  and  _249
REMARK  106  A    between atoms: _254  and  _256
REMARK  107  A    between atoms: _256  and  _257
REMARK  108  A    between atoms: _256  and  _259
REMARK  109  A    between atoms: _259  and  _260
REMARK  110  A    between atoms: _263  and  _265
REMARK  111  A    between atoms: _265  and  _266
REMARK  112  A    between atoms: _265  and  _268
REMARK  113  A    between atoms: _268  and  _269
REMARK  114  A    between atoms: _272  and  _274
REMARK  115  A    between atoms: _274  and  _275
REMARK  116  A    between atoms: _277  and  _279
REMARK  117  A    between atoms: _279  and  _280
REMARK  118  A    between atoms: _279  and  _282
REMARK  119  A    between atoms: _282  and  _283
REMARK  120  A    between atoms: _283  and  _284
REMARK  121  A    between atoms: _284  and  _285
REMARK  122  A    between atoms: _294  and  _296
REMARK  123  A    between atoms: _296  and  _297
REMARK  124  A    between atoms: _296  and  _299
REMARK  125  A    between atoms: _299  and  _300
REMARK  126  A    between atoms: _305  and  _307
REMARK  127  A    between atoms: _307  and  _308
REMARK  128  A    between atoms: _307  and  _310
REMARK  129  A    between atoms: _310  and  _311
REMARK  130  A    between atoms: _311  and  _312
REMARK  131  A    between atoms: _312  and  _313
REMARK  132  A    between atoms: _322  and  _324
REMARK  133  A    between atoms: _324  and  _325
REMARK  134  A    between atoms: _324  and  _327
REMARK  135  A    between atoms: _327  and  _328
REMARK  136  A    between atoms: _331  and  _333
REMARK  137  A    between atoms: _333  and  _334
REMARK  138  A    between atoms: _333  and  _336
REMARK  139  A    between atoms: _336  and  _337
REMARK  140  A    between atoms: _340  and  _342
REMARK  141  A    between atoms: _342  and  _343
REMARK  142  A    between atoms: _342  and  _345
REMARK  143  A    between atoms: _345  and  _346
REMARK  144  A    between atoms: _349  and  _351
REMARK  145  A    between atoms: _351  and  _352
REMARK  146  A    between atoms: _354  and  _356
REMARK  147  A    between atoms: _356  and  _357
REMARK  148  A    between atoms: _360  and  _362
REMARK  149  A    between atoms: _362  and  _363
REMARK  150  A    between atoms: _362  and  _365
REMARK  151  A    between atoms: _365  and  _366
REMARK  152  A    between atoms: _369  and  _371
REMARK  153  A    between atoms: _371  and  _372
REMARK  154  A    between atoms: _371  and  _374
REMARK  155  A    between atoms: _374  and  _375
REMARK  156  A    between atoms: _378  and  _380
REMARK  157  A    between atoms: _380  and  _381
REMARK  158  A    between atoms: _380  and  _383
REMARK  159  A    between atoms: _383  and  _384
REMARK  160  A    between atoms: _387  and  _389
REMARK  161  A    between atoms: _389  and  _390
REMARK  162  A    between atoms: _389  and  _392
REMARK  163  A    between atoms: _395  and  _397
REMARK  164  A    between atoms: _397  and  _398
REMARK  165  A    between atoms: _397  and  _400
REMARK  166  A    between atoms: _400  and  _401
REMARK  167  A    between atoms: _401  and  _402
REMARK  168  A    between atoms: _402  and  _403
REMARK  169  A    between atoms: _403  and  _404
REMARK  170  A    between atoms: _408  and  _410
REMARK  171  A    between atoms: _410  and  _411
REMARK  172  A    between atoms: _410  and  _413
REMARK  173  A    between atoms: _413  and  _414
REMARK  174  A    between atoms: _414  and  _415
REMARK  175  A    between atoms: _417  and  _419
REMARK  176  A    between atoms: _419  and  _420
REMARK  177  A    between atoms: _419  and  _422
REMARK  178  A    between atoms: _422  and  _423
REMARK  179  A    between atoms: _426  and  _428
REMARK  180  A    between atoms: _428  and  _429
REMARK  181  A    between atoms: _431  and  _433
REMARK  182  A    between atoms: _433  and  _434
REMARK  183  A    between atoms: _436  and  _438
REMARK  184  A    between atoms: _438  and  _439
REMARK  185  A    between atoms: _438  and  _441
REMARK  186  A    between atoms: _441  and  _442
REMARK  187  A    between atoms: _445  and  _447
REMARK  188  A    between atoms: _447  and  _448
REMARK  189  A    between atoms: _450  and  _452
REMARK  190  A    between atoms: _452  and  _453
REMARK  191  A    between atoms: _455  and  _457
REMARK  192  A    between atoms: _457  and  _458
REMARK  193  A    between atoms: _457  and  _460
REMARK  194  A    between atoms: _460  and  _461
REMARK  195  A    between atoms: _467  and  _469
REMARK  196  A    between atoms: _469  and  _470
REMARK  197  A    between atoms: _469  and  _472
REMARK  198  A    between atoms: _472  and  _473
REMARK  199  A    between atoms: _476  and  _478
REMARK  200  A    between atoms: _478  and  _479
REMARK  201  A    between atoms: _478  and  _481
REMARK  202  A    between atoms: _484  and  _486
REMARK  203  A    between atoms: _486  and  _487
REMARK  204  A    between atoms: _486  and  _489
REMARK  205  A    between atoms: _489  and  _490
REMARK  206  A    between atoms: _493  and  _495
REMARK  207  A    between atoms: _495  and  _496
REMARK  208  A    between atoms: _495  and  _498
REMARK  209  A    between atoms: _498  and  _499
REMARK  210  A    between atoms: _503  and  _504
REMARK  211  A    between atoms: _509  and  _511
REMARK  212  A    between atoms: _511  and  _512
REMARK  213  A    between atoms: _511  and  _514
REMARK  214  A    between atoms: _517  and  _519
REMARK  215  A    between atoms: _519  and  _520
REMARK  216  A    between atoms: _519  and  _522
REMARK  217  A    between atoms: _522  and  _523
REMARK  218  A    between atoms: _528  and  _530
REMARK  219  A    between atoms: _530  and  _531
REMARK  220  A    between atoms: _530  and  _533
REMARK  221  A    between atoms: _533  and  _534
REMARK  222  A    between atoms: _537  and  _539
REMARK  223  A    between atoms: _539  and  _540
REMARK  224  A    between atoms: _539  and  _542
REMARK  225  A    between atoms: _542  and  _543
REMARK  226  A    between atoms: _546  and  _548
REMARK  227  A    between atoms: _548  and  _549
REMARK  228  A    between atoms: _551  and  _553
REMARK  229  A    between atoms: _553  and  _554
REMARK  230  A    between atoms: _553  and  _556
REMARK  231  A    between atoms: _556  and  _557
REMARK  232  A    between atoms: _557  and  _558
REMARK  233  A    between atoms: _558  and  _559
REMARK                            x       y       z     vdW  Elec       q    Type
REMARK                         _______ _______ _______ _____ _____    ______ ____
ROOT
ATOM      1  O   HOH     1      66.948  18.044  30.849  0.00  0.00    +0.000 OA
ENDROOT
TORSDOF 0
REMARK  Name = ../refined-set-2016/1a94/1a94_pocket.pdb
REMARK  233 active torsions:
REMARK  status: ('A' for Active; 'I' for Inactive)
REMARK    1  A    between atoms: _1  and  _3
REMARK    2  A    between atoms: _3  and  _4
REMARK    3  A    between atoms: _3  and  _6
REMARK    4  A    between atoms: _6  and  _7
REMARK    5  A    between atoms: _7  and  _8
REMARK    6  A    between atoms: _8  and  _9
REMARK    7  A    between atoms: _18  and  _20
REMARK    8  A    between atoms: _20  and  _21
REMARK    9  A    between atoms: _20  and  _23
REMARK   10  A    between atoms: _23  and  _24
REMARK   11  A    between atoms: _27  and  _29
REMARK   12  A    between atoms: _29  and  _30
REMARK   13  A    between atoms: _29  and  _32
REMARK   14  A    between atoms: _32  and  _33
REMARK   15  A    between atoms: _36  and  _38
REMARK   16  A    between atoms: _38  and  _39
REMARK   17  A    between atoms: _38  and  _41
REMARK   18  A    between atoms: _41  and  _42
REMARK   19  A    between atoms: _45  and  _47
REMARK   20  A    between atoms: _47  and  _48
REMARK   21  A    between atoms: _47  and  _50
REMARK   22  A    between atoms: _50  and  _51
REMARK   23  A    between atoms: _54  and  _56
REMARK   24  A    between atoms: _56  and  _57
REMARK   25  A    between atoms: _59  and  _61
REMARK   26  A    between atoms: _61  and  _62
REMARK   27  A    between atoms: _65  and  _67
REMARK   28  A    between atoms: _67  and  _68
REMARK   29  A    between atoms: _67  and  _70
REMARK   30  A    between atoms: _70  and  _71
REMARK   31  A    between atoms: _74  and  _76
REMARK   32  A    between atoms: _76  and  _77
REMARK   33  A    between atoms: _76  and  _79
REMARK   34  A    between atoms: _79  and  _80
REMARK   35  A    between atoms: _83  and  _85
REMARK   36  A    between atoms: _85  and  _86
REMARK   37  A    between atoms: _85  and  _88
REMARK   38  A    between atoms: _88  and  _89
REMARK   39  A    between atoms: _92  and  _94
REMARK   40  A    between atoms: _94  and  _95
REMARK   41  A    between atoms: _94  and  _97
REMARK   42  A    between atoms: _100  and  _102
REMARK   43  A    between atoms: _102  and  _103
REMARK   44  A    between atoms: _102  and  _105
REMARK   45  A    between atoms: _105  and  _106
REMARK   46  A    between atoms: _106  and  _107
REMARK   47  A    between atoms: _107  and  _108
REMARK   48  A    between atoms: _108  and  _109
REMARK   49  A    between atoms: _113  and  _115
REMARK   50  A    between atoms: _115  and  _116
REMARK   51  A    between atoms: _115  and  _118
REMARK   52  A    between atoms: _118  and  _119
REMARK   53  A    between atoms: _119  and  _120
REMARK   54  A    between atoms: _122  and  _124
REMARK   55  A    between atoms: _124  and  _125
REMARK   56  A    between atoms: _124  and  _127
REMARK   57  A    between atoms: _127  and  _128
REMARK   58  A    between atoms: _131  and  _133
REMARK   59  A    between atoms: _133  and  _134
REMARK   60  A    between atoms: _136  and  _138
REMARK   61  A    between atoms: _138  and  _139
REMARK   62  A    between atoms: _141  and  _143
REMARK   63  A    between atoms: _143  and  _144
REMARK   64  A    between atoms: _143  and  _146
REMARK   65  A    between atoms: _146  and  _147
REMARK   66  A    between atoms: _150  and  _152
REMARK   67  A    between atoms: _152  and  _153
REMARK   68  A    between atoms: _155  and  _157
REMARK   69  A    between atoms: _157  and  _158
REMARK   70  A    between atoms: _160  and  _162
REMARK   71  A    between atoms: _162  and  _163
REMARK   72  A    between atoms: _162  and  _165
REMARK   73  A    between atoms: _165  and  _166
REMARK   74  A    between atoms: _172  and  _174
REMARK   75  A    between atoms: _174  and  _175
REMARK   76  A    between atoms: _174  and  _177
REMARK   77  A    between atoms: _177  and  _178
REMARK   78  A    between atoms: _181  and  _183
REMARK   79  A    between atoms: _183  and  _184
REMARK   80  A    between atoms: _183  and  _186
REMARK   81  A    between atoms: _189  and  _191
REMARK   82  A    between atoms: _191  and  _192
REMARK   83  A    between atoms: _191  and  _194
REMARK   84  A    between atoms: _194  and  _195
REMARK   85  A    between atoms: _195  and  _196
REMARK   86  A    between atoms: _201  and  _203
REMARK   87  A    between atoms: _203  and  _204
REMARK   88  A    between atoms: _203  and  _206
REMARK   89  A    between atoms: _206  and  _207
REMARK   90  A    between atoms: _210  and  _212
REMARK   91  A    between atoms: _212  and  _213
REMARK   92  A    between atoms: _212  and  _215
REMARK   93  A    between atoms: _215  and  _216
REMARK   94  A    between atoms: _219  and  _221
REMARK   95  A    between atoms: _221  and  _222
REMARK   96  A    between atoms: _221  and  _224
REMARK   97  A    between atoms: _224  and  _225
REMARK   98  A    between atoms: _229  and  _230
REMARK   99  A    between atoms: _235  and  _237
REMARK  100  A    between atoms: _237  and  _238
REMARK  101  A    between atoms: _237  and  _240
REMARK  102  A    between atoms: _243  and  _245
REMARK  103  A    between atoms: _245  and  _246
REMARK  104  A    between atoms: _245  and  _248
REMARK  105  A    between atoms: _248  and  _249
REMARK  106  A    between atoms: _254  and  _256
REMARK  107  A    between atoms: _256  and  _257
REMARK  108  A    between atoms: _256  and  _259
REMARK  109  A    between atoms: _259  and  _260
REMARK  110  A    between atoms: _263  and  _265
REMARK  111  A    between atoms: _265  and  _266
REMARK  112  A    between atoms: _265  and  _268
REMARK  113  A    between atoms: _268  and  _269
REMARK  114  A    between atoms: _272  and  _274
REMARK  115  A    between atoms: _274  and  _275
REMARK  116  A    between atoms: _277  and  _279
REMARK  117  A    between atoms: _279  and  _280
REMARK  118  A    between atoms: _279  and  _282
REMARK  119  A    between atoms: _282  and  _283
REMARK  120  A    between atoms: _283  and  _284
REMARK  121  A    between atoms: _284  and  _285
REMARK  122  A    between atoms: _294  and  _296
REMARK  123  A    between atoms: _296  and  _297
REMARK  124  A    between atoms: _296  and  _299
REMARK  125  A    between atoms: _299  and  _300
REMARK  126  A    between atoms: _305  and  _307
REMARK  127  A    between atoms: _307  and  _308
REMARK  128  A    between atoms: _307  and  _310
REMARK  129  A    between atoms: _310  and  _311
REMARK  130  A    between atoms: _311  and  _312
REMARK  131  A    between atoms: _312  and  _313
REMARK  132  A    between atoms: _322  and  _324
REMARK  133  A    between atoms: _324  and  _325
REMARK  134  A    between atoms: _324  and  _327
REMARK  135  A    between atoms: _327  and  _328
REMARK  136  A    between atoms: _331  and  _333
REMARK  137  A    between atoms: _333  and  _334
REMARK  138  A    between atoms: _333  and  _336
REMARK  139  A    between atoms: _336  and  _337
REMARK  140  A    between atoms: _340  and  _342
REMARK  141  A    between atoms: _342  and  _343
REMARK  142  A    between atoms: _342  and  _345
REMARK  143  A    between atoms: _345  and  _346
REMARK  144  A    between atoms: _349  and  _351
REMARK  145  A    between atoms: _351  and  _352
REMARK  146  A    between atoms: _354  and  _356
REMARK  147  A    between atoms: _356  and  _357
REMARK  148  A    between atoms: _360  and  _362
REMARK  149  A    between atoms: _362  and  _363
REMARK  150  A    between atoms: _362  and  _365
REMARK  151  A    between atoms: _365  and  _366
REMARK  152  A    between atoms: _369  and  _371
REMARK  153  A    between atoms: _371  and  _372
REMARK  154  A    between atoms: _371  and  _374
REMARK  155  A    between atoms: _374  and  _375
REMARK  156  A    between atoms: _378  and  _380
REMARK  157  A    between atoms: _380  and  _381
REMARK  158  A    between atoms: _380  and  _383
REMARK  159  A    between atoms: _383  and  _384
REMARK  160  A    between atoms: _387  and  _389
REMARK  161  A    between atoms: _389  and  _390
REMARK  162  A    between atoms: _389  and  _392
REMARK  163  A    between atoms: _395  and  _397
REMARK  164  A    between atoms: _397  and  _398
REMARK  165  A    between atoms: _397  and  _400
REMARK  166  A    between atoms: _400  and  _401
REMARK  167  A    between atoms: _401  and  _402
REMARK  168  A    between atoms: _402  and  _403
REMARK  169  A    between atoms: _403  and  _404
REMARK  170  A    between atoms: _408  and  _410
REMARK  171  A    between atoms: _410  and  _411
REMARK  172  A    between atoms: _410  and  _413
REMARK  173  A    between atoms: _413  and  _414
REMARK  174  A    between atoms: _414  and  _415
REMARK  175  A    between atoms: _417  and  _419
REMARK  176  A    between atoms: _419  and  _420
REMARK  177  A    between atoms: _419  and  _422
REMARK  178  A    between atoms: _422  and  _423
REMARK  179  A    between atoms: _426  and  _428
REMARK  180  A    between atoms: _428  and  _429
REMARK  181  A    between atoms: _431  and  _433
REMARK  182  A    between atoms: _433  and  _434
REMARK  183  A    between atoms: _436  and  _438
REMARK  184  A    between atoms: _438  and  _439
REMARK  185  A    between atoms: _438  and  _441
REMARK  186  A    between atoms: _441  and  _442
REMARK  187  A    between atoms: _445  and  _447
REMARK  188  A    between atoms: _447  and  _448
REMARK  189  A    between atoms: _450  and  _452
REMARK  190  A    between atoms: _452  and  _453
REMARK  191  A    between atoms: _455  and  _457
REMARK  192  A    between atoms: _457  and  _458
REMARK  193  A    between atoms: _457  and  _460
REMARK  194  A    between atoms: _460  and  _461
REMARK  195  A    between atoms: _467  and  _469
REMARK  196  A    between atoms: _469  and  _470
REMARK  197  A    between atoms: _469  and  _472
REMARK  198  A    between atoms: _472  and  _473
REMARK  199  A    between atoms: _476  and  _478
REMARK  200  A    between atoms: _478  and  _479
REMARK  201  A    between atoms: _478  and  _481
REMARK  202  A    between atoms: _484  and  _486
REMARK  203  A    between atoms: _486  and  _487
REMARK  204  A    between atoms: _486  and  _489
REMARK  205  A    between atoms: _489  and  _490
REMARK  206  A    between atoms: _493  and  _495
REMARK  207  A    between atoms: _495  and  _496
REMARK  208  A    between atoms: _495  and  _498
REMARK  209  A    between atoms: _498  and  _499
REMARK  210  A    between atoms: _503  and  _504
REMARK  211  A    between atoms: _509  and  _511
REMARK  212  A    between atoms: _511  and  _512
REMARK  213  A    between atoms: _511  and  _514
REMARK  214  A    between atoms: _517  and  _519
REMARK  215  A    between atoms: _519  and  _520
REMARK  216  A    between atoms: _519  and  _522
REMARK  217  A    between atoms: _522  and  _523
REMARK  218  A    between atoms: _528  and  _530
REMARK  219  A    between atoms: _530  and  _531
REMARK  220  A    between atoms: _530  and  _533
REMARK  221  A    between atoms: _533  and  _534
REMARK  222  A    between atoms: _537  and  _539
REMARK  223  A    between atoms: _539  and  _540
REMARK  224  A    between atoms: _539  and  _542
REMARK  225  A    between atoms: _542  and  _543
REMARK  226  A    between atoms: _546  and  _548
REMARK  227  A    between atoms: _548  and  _549
REMARK  228  A    between atoms: _551  and  _553
REMARK  229  A    between atoms: _553  and  _554
REMARK  230  A    between atoms: _553  and  _556
REMARK  231  A    between atoms: _556  and  _557
REMARK  232  A    between atoms: _557  and  _558
REMARK  233  A    between atoms: _558  and  _559
REMARK                            x       y       z     vdW  Elec       q    Type
REMARK                         _______ _______ _______ _____ _____    ______ ____
ROOT
ATOM      1  O   HOH     1      65.461  18.374  32.942  0.00  0.00    +0.000 OA
ENDROOT
TORSDOF 0
REMARK  Name = ../refined-set-2016/1a94/1a94_pocket.pdb
REMARK  233 active torsions:
REMARK  status: ('A' for Active; 'I' for Inactive)
REMARK    1  A    between atoms: _1  and  _3
REMARK    2  A    between atoms: _3  and  _4
REMARK    3  A    between atoms: _3  and  _6
REMARK    4  A    between atoms: _6  and  _7
REMARK    5  A    between atoms: _7  and  _8
REMARK    6  A    between atoms: _8  and  _9
REMARK    7  A    between atoms: _18  and  _20
REMARK    8  A    between atoms: _20  and  _21
REMARK    9  A    between atoms: _20  and  _23
REMARK   10  A    between atoms: _23  and  _24
REMARK   11  A    between atoms: _27  and  _29
REMARK   12  A    between atoms: _29  and  _30
REMARK   13  A    between atoms: _29  and  _32
REMARK   14  A    between atoms: _32  and  _33
REMARK   15  A    between atoms: _36  and  _38
REMARK   16  A    between atoms: _38  and  _39
REMARK   17  A    between atoms: _38  and  _41
REMARK   18  A    between atoms: _41  and  _42
REMARK   19  A    between atoms: _45  and  _47
REMARK   20  A    between atoms: _47  and  _48
REMARK   21  A    between atoms: _47  and  _50
REMARK   22  A    between atoms: _50  and  _51
REMARK   23  A    between atoms: _54  and  _56
REMARK   24  A    between atoms: _56  and  _57
REMARK   25  A    between atoms: _59  and  _61
REMARK   26  A    between atoms: _61  and  _62
REMARK   27  A    between atoms: _65  and  _67
REMARK   28  A    between atoms: _67  and  _68
REMARK   29  A    between atoms: _67  and  _70
REMARK   30  A    between atoms: _70  and  _71
REMARK   31  A    between atoms: _74  and  _76
REMARK   32  A    between atoms: _76  and  _77
REMARK   33  A    between atoms: _76  and  _79
REMARK   34  A    between atoms: _79  and  _80
REMARK   35  A    between atoms: _83  and  _85
REMARK   36  A    between atoms: _85  and  _86
REMARK   37  A    between atoms: _85  and  _88
REMARK   38  A    between atoms: _88  and  _89
REMARK   39  A    between atoms: _92  and  _94
REMARK   40  A    between atoms: _94  and  _95
REMARK   41  A    between atoms: _94  and  _97
REMARK   42  A    between atoms: _100  and  _102
REMARK   43  A    between atoms: _102  and  _103
REMARK   44  A    between atoms: _102  and  _105
REMARK   45  A    between atoms: _105  and  _106
REMARK   46  A    between atoms: _106  and  _107
REMARK   47  A    between atoms: _107  and  _108
REMARK   48  A    between atoms: _108  and  _109
REMARK   49  A    between atoms: _113  and  _115
REMARK   50  A    between atoms: _115  and  _116
REMARK   51  A    between atoms: _115  and  _118
REMARK   52  A    between atoms: _118  and  _119
REMARK   53  A    between atoms: _119  and  _120
REMARK   54  A    between atoms: _122  and  _124
REMARK   55  A    between atoms: _124  and  _125
REMARK   56  A    between atoms: _124  and  _127
REMARK   57  A    between atoms: _127  and  _128
REMARK   58  A    between atoms: _131  and  _133
REMARK   59  A    between atoms: _133  and  _134
REMARK   60  A    between atoms: _136  and  _138
REMARK   61  A    between atoms: _138  and  _139
REMARK   62  A    between atoms: _141  and  _143
REMARK   63  A    between atoms: _143  and  _144
REMARK   64  A    between atoms: _143  and  _146
REMARK   65  A    between atoms: _146  and  _147
REMARK   66  A    between atoms: _150  and  _152
REMARK   67  A    between atoms: _152  and  _153
REMARK   68  A    between atoms: _155  and  _157
REMARK   69  A    between atoms: _157  and  _158
REMARK   70  A    between atoms: _160  and  _162
REMARK   71  A    between atoms: _162  and  _163
REMARK   72  A    between atoms: _162  and  _165
REMARK   73  A    between atoms: _165  and  _166
REMARK   74  A    between atoms: _172  and  _174
REMARK   75  A    between atoms: _174  and  _175
REMARK   76  A    between atoms: _174  and  _177
REMARK   77  A    between atoms: _177  and  _178
REMARK   78  A    between atoms: _181  and  _183
REMARK   79  A    between atoms: _183  and  _184
REMARK   80  A    between atoms: _183  and  _186
REMARK   81  A    between atoms: _189  and  _191
REMARK   82  A    between atoms: _191  and  _192
REMARK   83  A    between atoms: _191  and  _194
REMARK   84  A    between atoms: _194  and  _195
REMARK   85  A    between atoms: _195  and  _196
REMARK   86  A    between atoms: _201  and  _203
REMARK   87  A    between atoms: _203  and  _204
REMARK   88  A    between atoms: _203  and  _206
REMARK   89  A    between atoms: _206  and  _207
REMARK   90  A    between atoms: _210  and  _212
REMARK   91  A    between atoms: _212  and  _213
REMARK   92  A    between atoms: _212  and  _215
REMARK   93  A    between atoms: _215  and  _216
REMARK   94  A    between atoms: _219  and  _221
REMARK   95  A    between atoms: _221  and  _222
REMARK   96  A    between atoms: _221  and  _224
REMARK   97  A    between atoms: _224  and  _225
REMARK   98  A    between atoms: _229  and  _230
REMARK   99  A    between atoms: _235  and  _237
REMARK  100  A    between atoms: _237  and  _238
REMARK  101  A    between atoms: _237  and  _240
REMARK  102  A    between atoms: _243  and  _245
REMARK  103  A    between atoms: _245  and  _246
REMARK  104  A    between atoms: _245  and  _248
REMARK  105  A    between atoms: _248  and  _249
REMARK  106  A    between atoms: _254  and  _256
REMARK  107  A    between atoms: _256  and  _257
REMARK  108  A    between atoms: _256  and  _259
REMARK  109  A    between atoms: _259  and  _260
REMARK  110  A    between atoms: _263  and  _265
REMARK  111  A    between atoms: _265  and  _266
REMARK  112  A    between atoms: _265  and  _268
REMARK  113  A    between atoms: _268  and  _269
REMARK  114  A    between atoms: _272  and  _274
REMARK  115  A    between atoms: _274  and  _275
REMARK  116  A    between atoms: _277  and  _279
REMARK  117  A    between atoms: _279  and  _280
REMARK  118  A    between atoms: _279  and  _282
REMARK  119  A    between atoms: _282  and  _283
REMARK  120  A    between atoms: _283  and  _284
REMARK  121  A    between atoms: _284  and  _285
REMARK  122  A    between atoms: _294  and  _296
REMARK  123  A    between atoms: _296  and  _297
REMARK  124  A    between atoms: _296  and  _299
REMARK  125  A    between atoms: _299  and  _300
REMARK  126  A    between atoms: _305  and  _307
REMARK  127  A    between atoms: _307  and  _308
REMARK  128  A    between atoms: _307  and  _310
REMARK  129  A    between atoms: _310  and  _311
REMARK  130  A    between atoms: _311  and  _312
REMARK  131  A    between atoms: _312  and  _313
REMARK  132  A    between atoms: _322  and  _324
REMARK  133  A    between atoms: _324  and  _325
REMARK  134  A    between atoms: _324  and  _327
REMARK  135  A    between atoms: _327  and  _328
REMARK  136  A    between atoms: _331  and  _333
REMARK  137  A    between atoms: _333  and  _334
REMARK  138  A    between atoms: _333  and  _336
REMARK  139  A    between atoms: _336  and  _337
REMARK  140  A    between atoms: _340  and  _342
REMARK  141  A    between atoms: _342  and  _343
REMARK  142  A    between atoms: _342  and  _345
REMARK  143  A    between atoms: _345  and  _346
REMARK  144  A    between atoms: _349  and  _351
REMARK  145  A    between atoms: _351  and  _352
REMARK  146  A    between atoms: _354  and  _356
REMARK  147  A    between atoms: _356  and  _357
REMARK  148  A    between atoms: _360  and  _362
REMARK  149  A    between atoms: _362  and  _363
REMARK  150  A    between atoms: _362  and  _365
REMARK  151  A    between atoms: _365  and  _366
REMARK  152  A    between atoms: _369  and  _371
REMARK  153  A    between atoms: _371  and  _372
REMARK  154  A    between atoms: _371  and  _374
REMARK  155  A    between atoms: _374  and  _375
REMARK  156  A    between atoms: _378  and  _380
REMARK  157  A    between atoms: _380  and  _381
REMARK  158  A    between atoms: _380  and  _383
REMARK  159  A    between atoms: _383  and  _384
REMARK  160  A    between atoms: _387  and  _389
REMARK  161  A    between atoms: _389  and  _390
REMARK  162  A    between atoms: _389  and  _392
REMARK  163  A    between atoms: _395  and  _397
REMARK  164  A    between atoms: _397  and  _398
REMARK  165  A    between atoms: _397  and  _400
REMARK  166  A    between atoms: _400  and  _401
REMARK  167  A    between atoms: _401  and  _402
REMARK  168  A    between atoms: _402  and  _403
REMARK  169  A    between atoms: _403  and  _404
REMARK  170  A    between atoms: _408  and  _410
REMARK  171  A    between atoms: _410  and  _411
REMARK  172  A    between atoms: _410  and  _413
REMARK  173  A    between atoms: _413  and  _414
REMARK  174  A    between atoms: _414  and  _415
REMARK  175  A    between atoms: _417  and  _419
REMARK  176  A    between atoms: _419  and  _420
REMARK  177  A    between atoms: _419  and  _422
REMARK  178  A    between atoms: _422  and  _423
REMARK  179  A    between atoms: _426  and  _428
REMARK  180  A    between atoms: _428  and  _429
REMARK  181  A    between atoms: _431  and  _433
REMARK  182  A    between atoms: _433  and  _434
REMARK  183  A    between atoms: _436  and  _438
REMARK  184  A    between atoms: _438  and  _439
REMARK  185  A    between atoms: _438  and  _441
REMARK  186  A    between atoms: _441  and  _442
REMARK  187  A    between atoms: _445  and  _447
REMARK  188  A    between atoms: _447  and  _448
REMARK  189  A    between atoms: _450  and  _452
REMARK  190  A    between atoms: _452  and  _453
REMARK  191  A    between atoms: _455  and  _457
REMARK  192  A    between atoms: _457  and  _458
REMARK  193  A    between atoms: _457  and  _460
REMARK  194  A    between atoms: _460  and  _461
REMARK  195  A    between atoms: _467  and  _469
REMARK  196  A    between atoms: _469  and  _470
REMARK  197  A    between atoms: _469  and  _472
REMARK  198  A    between atoms: _472  and  _473
REMARK  199  A    between atoms: _476  and  _478
REMARK  200  A    between atoms: _478  and  _479
REMARK  201  A    between atoms: _478  and  _481
REMARK  202  A    between atoms: _484  and  _486
REMARK  203  A    between atoms: _486  and  _487
REMARK  204  A    between atoms: _486  and  _489
REMARK  205  A    between atoms: _489  and  _490
REMARK  206  A    between atoms: _493  and  _495
REMARK  207  A    between atoms: _495  and  _496
REMARK  208  A    between atoms: _495  and  _498
REMARK  209  A    between atoms: _498  and  _499
REMARK  210  A    between atoms: _503  and  _504
REMARK  211  A    between atoms: _509  and  _511
REMARK  212  A    between atoms: _511  and  _512
REMARK  213  A    between atoms: _511  and  _514
REMARK  214  A    between atoms: _517  and  _519
REMARK  215  A    between atoms: _519  and  _520
REMARK  216  A    between atoms: _519  and  _522
REMARK  217  A    between atoms: _522  and  _523
REMARK  218  A    between atoms: _528  and  _530
REMARK  219  A    between atoms: _530  and  _531
REMARK  220  A    between atoms: _530  and  _533
REMARK  221  A    between atoms: _533  and  _534
REMARK  222  A    between atoms: _537  and  _539
REMARK  223  A    between atoms: _539  and  _540
REMARK  224  A    between atoms: _539  and  _542
REMARK  225  A    between atoms: _542  and  _543
REMARK  226  A    between atoms: _546  and  _548
REMARK  227  A    between atoms: _548  and  _549
REMARK  228  A    between atoms: _551  and  _553
REMARK  229  A    between atoms: _553  and  _554
REMARK  230  A    between atoms: _553  and  _556
REMARK  231  A    between atoms: _556  and  _557
REMARK  232  A    between atoms: _557  and  _558
REMARK  233  A    between atoms: _558  and  _559
REMARK                            x       y       z     vdW  Elec       q    Type
REMARK                         _______ _______ _______ _____ _____    ______ ____
ROOT
ATOM      1  O   HOH     1      47.036  12.933  29.527  0.00  0.00    +0.000 OA
ENDROOT
TORSDOF 0
REMARK  Name = ../refined-set-2016/1a94/1a94_pocket.pdb
REMARK  233 active torsions:
REMARK  status: ('A' for Active; 'I' for Inactive)
REMARK    1  A    between atoms: _1  and  _3
REMARK    2  A    between atoms: _3  and  _4
REMARK    3  A    between atoms: _3  and  _6
REMARK    4  A    between atoms: _6  and  _7
REMARK    5  A    between atoms: _7  and  _8
REMARK    6  A    between atoms: _8  and  _9
REMARK    7  A    between atoms: _18  and  _20
REMARK    8  A    between atoms: _20  and  _21
REMARK    9  A    between atoms: _20  and  _23
REMARK   10  A    between atoms: _23  and  _24
REMARK   11  A    between atoms: _27  and  _29
REMARK   12  A    between atoms: _29  and  _30
REMARK   13  A    between atoms: _29  and  _32
REMARK   14  A    between atoms: _32  and  _33
REMARK   15  A    between atoms: _36  and  _38
REMARK   16  A    between atoms: _38  and  _39
REMARK   17  A    between atoms: _38  and  _41
REMARK   18  A    between atoms: _41  and  _42
REMARK   19  A    between atoms: _45  and  _47
REMARK   20  A    between atoms: _47  and  _48
REMARK   21  A    between atoms: _47  and  _50
REMARK   22  A    between atoms: _50  and  _51
REMARK   23  A    between atoms: _54  and  _56
REMARK   24  A    between atoms: _56  and  _57
REMARK   25  A    between atoms: _59  and  _61
REMARK   26  A    between atoms: _61  and  _62
REMARK   27  A    between atoms: _65  and  _67
REMARK   28  A    between atoms: _67  and  _68
REMARK   29  A    between atoms: _67  and  _70
REMARK   30  A    between atoms: _70  and  _71
REMARK   31  A    between atoms: _74  and  _76
REMARK   32  A    between atoms: _76  and  _77
REMARK   33  A    between atoms: _76  and  _79
REMARK   34  A    between atoms: _79  and  _80
REMARK   35  A    between atoms: _83  and  _85
REMARK   36  A    between atoms: _85  and  _86
REMARK   37  A    between atoms: _85  and  _88
REMARK   38  A    between atoms: _88  and  _89
REMARK   39  A    between atoms: _92  and  _94
REMARK   40  A    between atoms: _94  and  _95
REMARK   41  A    between atoms: _94  and  _97
REMARK   42  A    between atoms: _100  and  _102
REMARK   43  A    between atoms: _102  and  _103
REMARK   44  A    between atoms: _102  and  _105
REMARK   45  A    between atoms: _105  and  _106
REMARK   46  A    between atoms: _106  and  _107
REMARK   47  A    between atoms: _107  and  _108
REMARK   48  A    between atoms: _108  and  _109
REMARK   49  A    between atoms: _113  and  _115
REMARK   50  A    between atoms: _115  and  _116
REMARK   51  A    between atoms: _115  and  _118
REMARK   52  A    between atoms: _118  and  _119
REMARK   53  A    between atoms: _119  and  _120
REMARK   54  A    between atoms: _122  and  _124
REMARK   55  A    between atoms: _124  and  _125
REMARK   56  A    between atoms: _124  and  _127
REMARK   57  A    between atoms: _127  and  _128
REMARK   58  A    between atoms: _131  and  _133
REMARK   59  A    between atoms: _133  and  _134
REMARK   60  A    between atoms: _136  and  _138
REMARK   61  A    between atoms: _138  and  _139
REMARK   62  A    between atoms: _141  and  _143
REMARK   63  A    between atoms: _143  and  _144
REMARK   64  A    between atoms: _143  and  _146
REMARK   65  A    between atoms: _146  and  _147
REMARK   66  A    between atoms: _150  and  _152
REMARK   67  A    between atoms: _152  and  _153
REMARK   68  A    between atoms: _155  and  _157
REMARK   69  A    between atoms: _157  and  _158
REMARK   70  A    between atoms: _160  and  _162
REMARK   71  A    between atoms: _162  and  _163
REMARK   72  A    between atoms: _162  and  _165
REMARK   73  A    between atoms: _165  and  _166
REMARK   74  A    between atoms: _172  and  _174
REMARK   75  A    between atoms: _174  and  _175
REMARK   76  A    between atoms: _174  and  _177
REMARK   77  A    between atoms: _177  and  _178
REMARK   78  A    between atoms: _181  and  _183
REMARK   79  A    between atoms: _183  and  _184
REMARK   80  A    between atoms: _183  and  _186
REMARK   81  A    between atoms: _189  and  _191
REMARK   82  A    between atoms: _191  and  _192
REMARK   83  A    between atoms: _191  and  _194
REMARK   84  A    between atoms: _194  and  _195
REMARK   85  A    between atoms: _195  and  _196
REMARK   86  A    between atoms: _201  and  _203
REMARK   87  A    between atoms: _203  and  _204
REMARK   88  A    between atoms: _203  and  _206
REMARK   89  A    between atoms: _206  and  _207
REMARK   90  A    between atoms: _210  and  _212
REMARK   91  A    between atoms: _212  and  _213
REMARK   92  A    between atoms: _212  and  _215
REMARK   93  A    between atoms: _215  and  _216
REMARK   94  A    between atoms: _219  and  _221
REMARK   95  A    between atoms: _221  and  _222
REMARK   96  A    between atoms: _221  and  _224
REMARK   97  A    between atoms: _224  and  _225
REMARK   98  A    between atoms: _229  and  _230
REMARK   99  A    between atoms: _235  and  _237
REMARK  100  A    between atoms: _237  and  _238
REMARK  101  A    between atoms: _237  and  _240
REMARK  102  A    between atoms: _243  and  _245
REMARK  103  A    between atoms: _245  and  _246
REMARK  104  A    between atoms: _245  and  _248
REMARK  105  A    between atoms: _248  and  _249
REMARK  106  A    between atoms: _254  and  _256
REMARK  107  A    between atoms: _256  and  _257
REMARK  108  A    between atoms: _256  and  _259
REMARK  109  A    between atoms: _259  and  _260
REMARK  110  A    between atoms: _263  and  _265
REMARK  111  A    between atoms: _265  and  _266
REMARK  112  A    between atoms: _265  and  _268
REMARK  113  A    between atoms: _268  and  _269
REMARK  114  A    between atoms: _272  and  _274
REMARK  115  A    between atoms: _274  and  _275
REMARK  116  A    between atoms: _277  and  _279
REMARK  117  A    between atoms: _279  and  _280
REMARK  118  A    between atoms: _279  and  _282
REMARK  119  A    between atoms: _282  and  _283
REMARK  120  A    between atoms: _283  and  _284
REMARK  121  A    between atoms: _284  and  _285
REMARK  122  A    between atoms: _294  and  _296
REMARK  123  A    between atoms: _296  and  _297
REMARK  124  A    between atoms: _296  and  _299
REMARK  125  A    between atoms: _299  and  _300
REMARK  126  A    between atoms: _305  and  _307
REMARK  127  A    between atoms: _307  and  _308
REMARK  128  A    between atoms: _307  and  _310
REMARK  129  A    between atoms: _310  and  _311
REMARK  130  A    between atoms: _311  and  _312
REMARK  131  A    between atoms: _312  and  _313
REMARK  132  A    between atoms: _322  and  _324
REMARK  133  A    between atoms: _324  and  _325
REMARK  134  A    between atoms: _324  and  _327
REMARK  135  A    between atoms: _327  and  _328
REMARK  136  A    between atoms: _331  and  _333
REMARK  137  A    between atoms: _333  and  _334
REMARK  138  A    between atoms: _333  and  _336
REMARK  139  A    between atoms: _336  and  _337
REMARK  140  A    between atoms: _340  and  _342
REMARK  141  A    between atoms: _342  and  _343
REMARK  142  A    between atoms: _342  and  _345
REMARK  143  A    between atoms: _345  and  _346
REMARK  144  A    between atoms: _349  and  _351
REMARK  145  A    between atoms: _351  and  _352
REMARK  146  A    between atoms: _354  and  _356
REMARK  147  A    between atoms: _356  and  _357
REMARK  148  A    between atoms: _360  and  _362
REMARK  149  A    between atoms: _362  and  _363
REMARK  150  A    between atoms: _362  and  _365
REMARK  151  A    between atoms: _365  and  _366
REMARK  152  A    between atoms: _369  and  _371
REMARK  153  A    between atoms: _371  and  _372
REMARK  154  A    between atoms: _371  and  _374
REMARK  155  A    between atoms: _374  and  _375
REMARK  156  A    between atoms: _378  and  _380
REMARK  157  A    between atoms: _380  and  _381
REMARK  158  A    between atoms: _380  and  _383
REMARK  159  A    between atoms: _383  and  _384
REMARK  160  A    between atoms: _387  and  _389
REMARK  161  A    between atoms: _389  and  _390
REMARK  162  A    between atoms: _389  and  _392
REMARK  163  A    between atoms: _395  and  _397
REMARK  164  A    between atoms: _397  and  _398
REMARK  165  A    between atoms: _397  and  _400
REMARK  166  A    between atoms: _400  and  _401
REMARK  167  A    between atoms: _401  and  _402
REMARK  168  A    between atoms: _402  and  _403
REMARK  169  A    between atoms: _403  and  _404
REMARK  170  A    between atoms: _408  and  _410
REMARK  171  A    between atoms: _410  and  _411
REMARK  172  A    between atoms: _410  and  _413
REMARK  173  A    between atoms: _413  and  _414
REMARK  174  A    between atoms: _414  and  _415
REMARK  175  A    between atoms: _417  and  _419
REMARK  176  A    between atoms: _419  and  _420
REMARK  177  A    between atoms: _419  and  _422
REMARK  178  A    between atoms: _422  and  _423
REMARK  179  A    between atoms: _426  and  _428
REMARK  180  A    between atoms: _428  and  _429
REMARK  181  A    between atoms: _431  and  _433
REMARK  182  A    between atoms: _433  and  _434
REMARK  183  A    between atoms: _436  and  _438
REMARK  184  A    between atoms: _438  and  _439
REMARK  185  A    between atoms: _438  and  _441
REMARK  186  A    between atoms: _441  and  _442
REMARK  187  A    between atoms: _445  and  _447
REMARK  188  A    between atoms: _447  and  _448
REMARK  189  A    between atoms: _450  and  _452
REMARK  190  A    between atoms: _452  and  _453
REMARK  191  A    between atoms: _455  and  _457
REMARK  192  A    between atoms: _457  and  _458
REMARK  193  A    between atoms: _457  and  _460
REMARK  194  A    between atoms: _460  and  _461
REMARK  195  A    between atoms: _467  and  _469
REMARK  196  A    between atoms: _469  and  _470
REMARK  197  A    between atoms: _469  and  _472
REMARK  198  A    between atoms: _472  and  _473
REMARK  199  A    between atoms: _476  and  _478
REMARK  200  A    between atoms: _478  and  _479
REMARK  201  A    between atoms: _478  and  _481
REMARK  202  A    between atoms: _484  and  _486
REMARK  203  A    between atoms: _486  and  _487
REMARK  204  A    between atoms: _486  and  _489
REMARK  205  A    between atoms: _489  and  _490
REMARK  206  A    between atoms: _493  and  _495
REMARK  207  A    between atoms: _495  and  _496
REMARK  208  A    between atoms: _495  and  _498
REMARK  209  A    between atoms: _498  and  _499
REMARK  210  A    between atoms: _503  and  _504
REMARK  211  A    between atoms: _509  and  _511
REMARK  212  A    between atoms: _511  and  _512
REMARK  213  A    between atoms: _511  and  _514
REMARK  214  A    between atoms: _517  and  _519
REMARK  215  A    between atoms: _519  and  _520
REMARK  216  A    between atoms: _519  and  _522
REMARK  217  A    between atoms: _522  and  _523
REMARK  218  A    between atoms: _528  and  _530
REMARK  219  A    between atoms: _530  and  _531
REMARK  220  A    between atoms: _530  and  _533
REMARK  221  A    between atoms: _533  and  _534
REMARK  222  A    between atoms: _537  and  _539
REMARK  223  A    between atoms: _539  and  _540
REMARK  224  A    between atoms: _539  and  _542
REMARK  225  A    between atoms: _542  and  _543
REMARK  226  A    between atoms: _546  and  _548
REMARK  227  A    between atoms: _548  and  _549
REMARK  228  A    between atoms: _551  and  _553
REMARK  229  A    between atoms: _553  and  _554
REMARK  230  A    between atoms: _553  and  _556
REMARK  231  A    between atoms: _556  and  _557
REMARK  232  A    between atoms: _557  and  _558
REMARK  233  A    between atoms: _558  and  _559
REMARK                            x       y       z     vdW  Elec       q    Type
REMARK                         _______ _______ _______ _____ _____    ______ ____
ROOT
ATOM      1  O   HOH     1      70.642   5.202  32.841  0.00  0.00    +0.000 OA
ENDROOT
TORSDOF 0
REMARK  Name = ../refined-set-2016/1a94/1a94_pocket.pdb
REMARK  233 active torsions:
REMARK  status: ('A' for Active; 'I' for Inactive)
REMARK    1  A    between atoms: _1  and  _3
REMARK    2  A    between atoms: _3  and  _4
REMARK    3  A    between atoms: _3  and  _6
REMARK    4  A    between atoms: _6  and  _7
REMARK    5  A    between atoms: _7  and  _8
REMARK    6  A    between atoms: _8  and  _9
REMARK    7  A    between atoms: _18  and  _20
REMARK    8  A    between atoms: _20  and  _21
REMARK    9  A    between atoms: _20  and  _23
REMARK   10  A    between atoms: _23  and  _24
REMARK   11  A    between atoms: _27  and  _29
REMARK   12  A    between atoms: _29  and  _30
REMARK   13  A    between atoms: _29  and  _32
REMARK   14  A    between atoms: _32  and  _33
REMARK   15  A    between atoms: _36  and  _38
REMARK   16  A    between atoms: _38  and  _39
REMARK   17  A    between atoms: _38  and  _41
REMARK   18  A    between atoms: _41  and  _42
REMARK   19  A    between atoms: _45  and  _47
REMARK   20  A    between atoms: _47  and  _48
REMARK   21  A    between atoms: _47  and  _50
REMARK   22  A    between atoms: _50  and  _51
REMARK   23  A    between atoms: _54  and  _56
REMARK   24  A    between atoms: _56  and  _57
REMARK   25  A    between atoms: _59  and  _61
REMARK   26  A    between atoms: _61  and  _62
REMARK   27  A    between atoms: _65  and  _67
REMARK   28  A    between atoms: _67  and  _68
REMARK   29  A    between atoms: _67  and  _70
REMARK   30  A    between atoms: _70  and  _71
REMARK   31  A    between atoms: _74  and  _76
REMARK   32  A    between atoms: _76  and  _77
REMARK   33  A    between atoms: _76  and  _79
REMARK   34  A    between atoms: _79  and  _80
REMARK   35  A    between atoms: _83  and  _85
REMARK   36  A    between atoms: _85  and  _86
REMARK   37  A    between atoms: _85  and  _88
REMARK   38  A    between atoms: _88  and  _89
REMARK   39  A    between atoms: _92  and  _94
REMARK   40  A    between atoms: _94  and  _95
REMARK   41  A    between atoms: _94  and  _97
REMARK   42  A    between atoms: _100  and  _102
REMARK   43  A    between atoms: _102  and  _103
REMARK   44  A    between atoms: _102  and  _105
REMARK   45  A    between atoms: _105  and  _106
REMARK   46  A    between atoms: _106  and  _107
REMARK   47  A    between atoms: _107  and  _108
REMARK   48  A    between atoms: _108  and  _109
REMARK   49  A    between atoms: _113  and  _115
REMARK   50  A    between atoms: _115  and  _116
REMARK   51  A    between atoms: _115  and  _118
REMARK   52  A    between atoms: _118  and  _119
REMARK   53  A    between atoms: _119  and  _120
REMARK   54  A    between atoms: _122  and  _124
REMARK   55  A    between atoms: _124  and  _125
REMARK   56  A    between atoms: _124  and  _127
REMARK   57  A    between atoms: _127  and  _128
REMARK   58  A    between atoms: _131  and  _133
REMARK   59  A    between atoms: _133  and  _134
REMARK   60  A    between atoms: _136  and  _138
REMARK   61  A    between atoms: _138  and  _139
REMARK   62  A    between atoms: _141  and  _143
REMARK   63  A    between atoms: _143  and  _144
REMARK   64  A    between atoms: _143  and  _146
REMARK   65  A    between atoms: _146  and  _147
REMARK   66  A    between atoms: _150  and  _152
REMARK   67  A    between atoms: _152  and  _153
REMARK   68  A    between atoms: _155  and  _157
REMARK   69  A    between atoms: _157  and  _158
REMARK   70  A    between atoms: _160  and  _162
REMARK   71  A    between atoms: _162  and  _163
REMARK   72  A    between atoms: _162  and  _165
REMARK   73  A    between atoms: _165  and  _166
REMARK   74  A    between atoms: _172  and  _174
REMARK   75  A    between atoms: _174  and  _175
REMARK   76  A    between atoms: _174  and  _177
REMARK   77  A    between atoms: _177  and  _178
REMARK   78  A    between atoms: _181  and  _183
REMARK   79  A    between atoms: _183  and  _184
REMARK   80  A    between atoms: _183  and  _186
REMARK   81  A    between atoms: _189  and  _191
REMARK   82  A    between atoms: _191  and  _192
REMARK   83  A    between atoms: _191  and  _194
REMARK   84  A    between atoms: _194  and  _195
REMARK   85  A    between atoms: _195  and  _196
REMARK   86  A    between atoms: _201  and  _203
REMARK   87  A    between atoms: _203  and  _204
REMARK   88  A    between atoms: _203  and  _206
REMARK   89  A    between atoms: _206  and  _207
REMARK   90  A    between atoms: _210  and  _212
REMARK   91  A    between atoms: _212  and  _213
REMARK   92  A    between atoms: _212  and  _215
REMARK   93  A    between atoms: _215  and  _216
REMARK   94  A    between atoms: _219  and  _221
REMARK   95  A    between atoms: _221  and  _222
REMARK   96  A    between atoms: _221  and  _224
REMARK   97  A    between atoms: _224  and  _225
REMARK   98  A    between atoms: _229  and  _230
REMARK   99  A    between atoms: _235  and  _237
REMARK  100  A    between atoms: _237  and  _238
REMARK  101  A    between atoms: _237  and  _240
REMARK  102  A    between atoms: _243  and  _245
REMARK  103  A    between atoms: _245  and  _246
REMARK  104  A    between atoms: _245  and  _248
REMARK  105  A    between atoms: _248  and  _249
REMARK  106  A    between atoms: _254  and  _256
REMARK  107  A    between atoms: _256  and  _257
REMARK  108  A    between atoms: _256  and  _259
REMARK  109  A    between atoms: _259  and  _260
REMARK  110  A    between atoms: _263  and  _265
REMARK  111  A    between atoms: _265  and  _266
REMARK  112  A    between atoms: _265  and  _268
REMARK  113  A    between atoms: _268  and  _269
REMARK  114  A    between atoms: _272  and  _274
REMARK  115  A    between atoms: _274  and  _275
REMARK  116  A    between atoms: _277  and  _279
REMARK  117  A    between atoms: _279  and  _280
REMARK  118  A    between atoms: _279  and  _282
REMARK  119  A    between atoms: _282  and  _283
REMARK  120  A    between atoms: _283  and  _284
REMARK  121  A    between atoms: _284  and  _285
REMARK  122  A    between atoms: _294  and  _296
REMARK  123  A    between atoms: _296  and  _297
REMARK  124  A    between atoms: _296  and  _299
REMARK  125  A    between atoms: _299  and  _300
REMARK  126  A    between atoms: _305  and  _307
REMARK  127  A    between atoms: _307  and  _308
REMARK  128  A    between atoms: _307  and  _310
REMARK  129  A    between atoms: _310  and  _311
REMARK  130  A    between atoms: _311  and  _312
REMARK  131  A    between atoms: _312  and  _313
REMARK  132  A    between atoms: _322  and  _324
REMARK  133  A    between atoms: _324  and  _325
REMARK  134  A    between atoms: _324  and  _327
REMARK  135  A    between atoms: _327  and  _328
REMARK  136  A    between atoms: _331  and  _333
REMARK  137  A    between atoms: _333  and  _334
REMARK  138  A    between atoms: _333  and  _336
REMARK  139  A    between atoms: _336  and  _337
REMARK  140  A    between atoms: _340  and  _342
REMARK  141  A    between atoms: _342  and  _343
REMARK  142  A    between atoms: _342  and  _345
REMARK  143  A    between atoms: _345  and  _346
REMARK  144  A    between atoms: _349  and  _351
REMARK  145  A    between atoms: _351  and  _352
REMARK  146  A    between atoms: _354  and  _356
REMARK  147  A    between atoms: _356  and  _357
REMARK  148  A    between atoms: _360  and  _362
REMARK  149  A    between atoms: _362  and  _363
REMARK  150  A    between atoms: _362  and  _365
REMARK  151  A    between atoms: _365  and  _366
REMARK  152  A    between atoms: _369  and  _371
REMARK  153  A    between atoms: _371  and  _372
REMARK  154  A    between atoms: _371  and  _374
REMARK  155  A    between atoms: _374  and  _375
REMARK  156  A    between atoms: _378  and  _380
REMARK  157  A    between atoms: _380  and  _381
REMARK  158  A    between atoms: _380  and  _383
REMARK  159  A    between atoms: _383  and  _384
REMARK  160  A    between atoms: _387  and  _389
REMARK  161  A    between atoms: _389  and  _390
REMARK  162  A    between atoms: _389  and  _392
REMARK  163  A    between atoms: _395  and  _397
REMARK  164  A    between atoms: _397  and  _398
REMARK  165  A    between atoms: _397  and  _400
REMARK  166  A    between atoms: _400  and  _401
REMARK  167  A    between atoms: _401  and  _402
REMARK  168  A    between atoms: _402  and  _403
REMARK  169  A    between atoms: _403  and  _404
REMARK  170  A    between atoms: _408  and  _410
REMARK  171  A    between atoms: _410  and  _411
REMARK  172  A    between atoms: _410  and  _413
REMARK  173  A    between atoms: _413  and  _414
REMARK  174  A    between atoms: _414  and  _415
REMARK  175  A    between atoms: _417  and  _419
REMARK  176  A    between atoms: _419  and  _420
REMARK  177  A    between atoms: _419  and  _422
REMARK  178  A    between atoms: _422  and  _423
REMARK  179  A    between atoms: _426  and  _428
REMARK  180  A    between atoms: _428  and  _429
REMARK  181  A    between atoms: _431  and  _433
REMARK  182  A    between atoms: _433  and  _434
REMARK  183  A    between atoms: _436  and  _438
REMARK  184  A    between atoms: _438  and  _439
REMARK  185  A    between atoms: _438  and  _441
REMARK  186  A    between atoms: _441  and  _442
REMARK  187  A    between atoms: _445  and  _447
REMARK  188  A    between atoms: _447  and  _448
REMARK  189  A    between atoms: _450  and  _452
REMARK  190  A    between atoms: _452  and  _453
REMARK  191  A    between atoms: _455  and  _457
REMARK  192  A    between atoms: _457  and  _458
REMARK  193  A    between atoms: _457  and  _460
REMARK  194  A    between atoms: _460  and  _461
REMARK  195  A    between atoms: _467  and  _469
REMARK  196  A    between atoms: _469  and  _470
REMARK  197  A    between atoms: _469  and  _472
REMARK  198  A    between atoms: _472  and  _473
REMARK  199  A    between atoms: _476  and  _478
REMARK  200  A    between atoms: _478  and  _479
REMARK  201  A    between atoms: _478  and  _481
REMARK  202  A    between atoms: _484  and  _486
REMARK  203  A    between atoms: _486  and  _487
REMARK  204  A    between atoms: _486  and  _489
REMARK  205  A    between atoms: _489  and  _490
REMARK  206  A    between atoms: _493  and  _495
REMARK  207  A    between atoms: _495  and  _496
REMARK  208  A    between atoms: _495  and  _498
REMARK  209  A    between atoms: _498  and  _499
REMARK  210  A    between atoms: _503  and  _504
REMARK  211  A    between atoms: _509  and  _511
REMARK  212  A    between atoms: _511  and  _512
REMARK  213  A    between atoms: _511  and  _514
REMARK  214  A    between atoms: _517  and  _519
REMARK  215  A    between atoms: _519  and  _520
REMARK  216  A    between atoms: _519  and  _522
REMARK  217  A    between atoms: _522  and  _523
REMARK  218  A    between atoms: _528  and  _530
REMARK  219  A    between atoms: _530  and  _531
REMARK  220  A    between atoms: _530  and  _533
REMARK  221  A    between atoms: _533  and  _534
REMARK  222  A    between atoms: _537  and  _539
REMARK  223  A    between atoms: _539  and  _540
REMARK  224  A    between atoms: _539  and  _542
REMARK  225  A    between atoms: _542  and  _543
REMARK  226  A    between atoms: _546  and  _548
REMARK  227  A    between atoms: _548  and  _549
REMARK  228  A    between atoms: _551  and  _553
REMARK  229  A    between atoms: _553  and  _554
REMARK  230  A    between atoms: _553  and  _556
REMARK  231  A    between atoms: _556  and  _557
REMARK  232  A    between atoms: _557  and  _558
REMARK  233  A    between atoms: _558  and  _559
REMARK                            x       y       z     vdW  Elec       q    Type
REMARK                         _______ _______ _______ _____ _____    ______ ____
ROOT
ATOM      1  O   HOH     1      56.179  18.232  34.259  0.00  0.00    +0.000 OA
ENDROOT
TORSDOF 0
REMARK  Name = ../refined-set-2016/1a94/1a94_pocket.pdb
REMARK  233 active torsions:
REMARK  status: ('A' for Active; 'I' for Inactive)
REMARK    1  A    between atoms: _1  and  _3
REMARK    2  A    between atoms: _3  and  _4
REMARK    3  A    between atoms: _3  and  _6
REMARK    4  A    between atoms: _6  and  _7
REMARK    5  A    between atoms: _7  and  _8
REMARK    6  A    between atoms: _8  and  _9
REMARK    7  A    between atoms: _18  and  _20
REMARK    8  A    between atoms: _20  and  _21
REMARK    9  A    between atoms: _20  and  _23
REMARK   10  A    between atoms: _23  and  _24
REMARK   11  A    between atoms: _27  and  _29
REMARK   12  A    between atoms: _29  and  _30
REMARK   13  A    between atoms: _29  and  _32
REMARK   14  A    between atoms: _32  and  _33
REMARK   15  A    between atoms: _36  and  _38
REMARK   16  A    between atoms: _38  and  _39
REMARK   17  A    between atoms: _38  and  _41
REMARK   18  A    between atoms: _41  and  _42
REMARK   19  A    between atoms: _45  and  _47
REMARK   20  A    between atoms: _47  and  _48
REMARK   21  A    between atoms: _47  and  _50
REMARK   22  A    between atoms: _50  and  _51
REMARK   23  A    between atoms: _54  and  _56
REMARK   24  A    between atoms: _56  and  _57
REMARK   25  A    between atoms: _59  and  _61
REMARK   26  A    between atoms: _61  and  _62
REMARK   27  A    between atoms: _65  and  _67
REMARK   28  A    between atoms: _67  and  _68
REMARK   29  A    between atoms: _67  and  _70
REMARK   30  A    between atoms: _70  and  _71
REMARK   31  A    between atoms: _74  and  _76
REMARK   32  A    between atoms: _76  and  _77
REMARK   33  A    between atoms: _76  and  _79
REMARK   34  A    between atoms: _79  and  _80
REMARK   35  A    between atoms: _83  and  _85
REMARK   36  A    between atoms: _85  and  _86
REMARK   37  A    between atoms: _85  and  _88
REMARK   38  A    between atoms: _88  and  _89
REMARK   39  A    between atoms: _92  and  _94
REMARK   40  A    between atoms: _94  and  _95
REMARK   41  A    between atoms: _94  and  _97
REMARK   42  A    between atoms: _100  and  _102
REMARK   43  A    between atoms: _102  and  _103
REMARK   44  A    between atoms: _102  and  _105
REMARK   45  A    between atoms: _105  and  _106
REMARK   46  A    between atoms: _106  and  _107
REMARK   47  A    between atoms: _107  and  _108
REMARK   48  A    between atoms: _108  and  _109
REMARK   49  A    between atoms: _113  and  _115
REMARK   50  A    between atoms: _115  and  _116
REMARK   51  A    between atoms: _115  and  _118
REMARK   52  A    between atoms: _118  and  _119
REMARK   53  A    between atoms: _119  and  _120
REMARK   54  A    between atoms: _122  and  _124
REMARK   55  A    between atoms: _124  and  _125
REMARK   56  A    between atoms: _124  and  _127
REMARK   57  A    between atoms: _127  and  _128
REMARK   58  A    between atoms: _131  and  _133
REMARK   59  A    between atoms: _133  and  _134
REMARK   60  A    between atoms: _136  and  _138
REMARK   61  A    between atoms: _138  and  _139
REMARK   62  A    between atoms: _141  and  _143
REMARK   63  A    between atoms: _143  and  _144
REMARK   64  A    between atoms: _143  and  _146
REMARK   65  A    between atoms: _146  and  _147
REMARK   66  A    between atoms: _150  and  _152
REMARK   67  A    between atoms: _152  and  _153
REMARK   68  A    between atoms: _155  and  _157
REMARK   69  A    between atoms: _157  and  _158
REMARK   70  A    between atoms: _160  and  _162
REMARK   71  A    between atoms: _162  and  _163
REMARK   72  A    between atoms: _162  and  _165
REMARK   73  A    between atoms: _165  and  _166
REMARK   74  A    between atoms: _172  and  _174
REMARK   75  A    between atoms: _174  and  _175
REMARK   76  A    between atoms: _174  and  _177
REMARK   77  A    between atoms: _177  and  _178
REMARK   78  A    between atoms: _181  and  _183
REMARK   79  A    between atoms: _183  and  _184
REMARK   80  A    between atoms: _183  and  _186
REMARK   81  A    between atoms: _189  and  _191
REMARK   82  A    between atoms: _191  and  _192
REMARK   83  A    between atoms: _191  and  _194
REMARK   84  A    between atoms: _194  and  _195
REMARK   85  A    between atoms: _195  and  _196
REMARK   86  A    between atoms: _201  and  _203
REMARK   87  A    between atoms: _203  and  _204
REMARK   88  A    between atoms: _203  and  _206
REMARK   89  A    between atoms: _206  and  _207
REMARK   90  A    between atoms: _210  and  _212
REMARK   91  A    between atoms: _212  and  _213
REMARK   92  A    between atoms: _212  and  _215
REMARK   93  A    between atoms: _215  and  _216
REMARK   94  A    between atoms: _219  and  _221
REMARK   95  A    between atoms: _221  and  _222
REMARK   96  A    between atoms: _221  and  _224
REMARK   97  A    between atoms: _224  and  _225
REMARK   98  A    between atoms: _229  and  _230
REMARK   99  A    between atoms: _235  and  _237
REMARK  100  A    between atoms: _237  and  _238
REMARK  101  A    between atoms: _237  and  _240
REMARK  102  A    between atoms: _243  and  _245
REMARK  103  A    between atoms: _245  and  _246
REMARK  104  A    between atoms: _245  and  _248
REMARK  105  A    between atoms: _248  and  _249
REMARK  106  A    between atoms: _254  and  _256
REMARK  107  A    between atoms: _256  and  _257
REMARK  108  A    between atoms: _256  and  _259
REMARK  109  A    between atoms: _259  and  _260
REMARK  110  A    between atoms: _263  and  _265
REMARK  111  A    between atoms: _265  and  _266
REMARK  112  A    between atoms: _265  and  _268
REMARK  113  A    between atoms: _268  and  _269
REMARK  114  A    between atoms: _272  and  _274
REMARK  115  A    between atoms: _274  and  _275
REMARK  116  A    between atoms: _277  and  _279
REMARK  117  A    between atoms: _279  and  _280
REMARK  118  A    between atoms: _279  and  _282
REMARK  119  A    between atoms: _282  and  _283
REMARK  120  A    between atoms: _283  and  _284
REMARK  121  A    between atoms: _284  and  _285
REMARK  122  A    between atoms: _294  and  _296
REMARK  123  A    between atoms: _296  and  _297
REMARK  124  A    between atoms: _296  and  _299
REMARK  125  A    between atoms: _299  and  _300
REMARK  126  A    between atoms: _305  and  _307
REMARK  127  A    between atoms: _307  and  _308
REMARK  128  A    between atoms: _307  and  _310
REMARK  129  A    between atoms: _310  and  _311
REMARK  130  A    between atoms: _311  and  _312
REMARK  131  A    between atoms: _312  and  _313
REMARK  132  A    between atoms: _322  and  _324
REMARK  133  A    between atoms: _324  and  _325
REMARK  134  A    between atoms: _324  and  _327
REMARK  135  A    between atoms: _327  and  _328
REMARK  136  A    between atoms: _331  and  _333
REMARK  137  A    between atoms: _333  and  _334
REMARK  138  A    between atoms: _333  and  _336
REMARK  139  A    between atoms: _336  and  _337
REMARK  140  A    between atoms: _340  and  _342
REMARK  141  A    between atoms: _342  and  _343
REMARK  142  A    between atoms: _342  and  _345
REMARK  143  A    between atoms: _345  and  _346
REMARK  144  A    between atoms: _349  and  _351
REMARK  145  A    between atoms: _351  and  _352
REMARK  146  A    between atoms: _354  and  _356
REMARK  147  A    between atoms: _356  and  _357
REMARK  148  A    between atoms: _360  and  _362
REMARK  149  A    between atoms: _362  and  _363
REMARK  150  A    between atoms: _362  and  _365
REMARK  151  A    between atoms: _365  and  _366
REMARK  152  A    between atoms: _369  and  _371
REMARK  153  A    between atoms: _371  and  _372
REMARK  154  A    between atoms: _371  and  _374
REMARK  155  A    between atoms: _374  and  _375
REMARK  156  A    between atoms: _378  and  _380
REMARK  157  A    between atoms: _380  and  _381
REMARK  158  A    between atoms: _380  and  _383
REMARK  159  A    between atoms: _383  and  _384
REMARK  160  A    between atoms: _387  and  _389
REMARK  161  A    between atoms: _389  and  _390
REMARK  162  A    between atoms: _389  and  _392
REMARK  163  A    between atoms: _395  and  _397
REMARK  164  A    between atoms: _397  and  _398
REMARK  165  A    between atoms: _397  and  _400
REMARK  166  A    between atoms: _400  and  _401
REMARK  167  A    between atoms: _401  and  _402
REMARK  168  A    between atoms: _402  and  _403
REMARK  169  A    between atoms: _403  and  _404
REMARK  170  A    between atoms: _408  and  _410
REMARK  171  A    between atoms: _410  and  _411
REMARK  172  A    between atoms: _410  and  _413
REMARK  173  A    between atoms: _413  and  _414
REMARK  174  A    between atoms: _414  and  _415
REMARK  175  A    between atoms: _417  and  _419
REMARK  176  A    between atoms: _419  and  _420
REMARK  177  A    between atoms: _419  and  _422
REMARK  178  A    between atoms: _422  and  _423
REMARK  179  A    between atoms: _426  and  _428
REMARK  180  A    between atoms: _428  and  _429
REMARK  181  A    between atoms: _431  and  _433
REMARK  182  A    between atoms: _433  and  _434
REMARK  183  A    between atoms: _436  and  _438
REMARK  184  A    between atoms: _438  and  _439
REMARK  185  A    between atoms: _438  and  _441
REMARK  186  A    between atoms: _441  and  _442
REMARK  187  A    between atoms: _445  and  _447
REMARK  188  A    between atoms: _447  and  _448
REMARK  189  A    between atoms: _450  and  _452
REMARK  190  A    between atoms: _452  and  _453
REMARK  191  A    between atoms: _455  and  _457
REMARK  192  A    between atoms: _457  and  _458
REMARK  193  A    between atoms: _457  and  _460
REMARK  194  A    between atoms: _460  and  _461
REMARK  195  A    between atoms: _467  and  _469
REMARK  196  A    between atoms: _469  and  _470
REMARK  197  A    between atoms: _469  and  _472
REMARK  198  A    between atoms: _472  and  _473
REMARK  199  A    between atoms: _476  and  _478
REMARK  200  A    between atoms: _478  and  _479
REMARK  201  A    between atoms: _478  and  _481
REMARK  202  A    between atoms: _484  and  _486
REMARK  203  A    between atoms: _486  and  _487
REMARK  204  A    between atoms: _486  and  _489
REMARK  205  A    between atoms: _489  and  _490
REMARK  206  A    between atoms: _493  and  _495
REMARK  207  A    between atoms: _495  and  _496
REMARK  208  A    between atoms: _495  and  _498
REMARK  209  A    between atoms: _498  and  _499
REMARK  210  A    between atoms: _503  and  _504
REMARK  211  A    between atoms: _509  and  _511
REMARK  212  A    between atoms: _511  and  _512
REMARK  213  A    between atoms: _511  and  _514
REMARK  214  A    between atoms: _517  and  _519
REMARK  215  A    between atoms: _519  and  _520
REMARK  216  A    between atoms: _519  and  _522
REMARK  217  A    between atoms: _522  and  _523
REMARK  218  A    between atoms: _528  and  _530
REMARK  219  A    between atoms: _530  and  _531
REMARK  220  A    between atoms: _530  and  _533
REMARK  221  A    between atoms: _533  and  _534
REMARK  222  A    between atoms: _537  and  _539
REMARK  223  A    between atoms: _539  and  _540
REMARK  224  A    between atoms: _539  and  _542
REMARK  225  A    between atoms: _542  and  _543
REMARK  226  A    between atoms: _546  and  _548
REMARK  227  A    between atoms: _548  and  _549
REMARK  228  A    between atoms: _551  and  _553
REMARK  229  A    between atoms: _553  and  _554
REMARK  230  A    between atoms: _553  and  _556
REMARK  231  A    between atoms: _556  and  _557
REMARK  232  A    between atoms: _557  and  _558
REMARK  233  A    between atoms: _558  and  _559
REMARK                            x       y       z     vdW  Elec       q    Type
REMARK                         _______ _______ _______ _____ _____    ______ ____
ROOT
ATOM      1  O   HOH     1      67.380   8.032  38.608  0.00  0.00    +0.000 OA
ENDROOT
TORSDOF 0
REMARK  Name = ../refined-set-2016/1a94/1a94_pocket.pdb
REMARK  233 active torsions:
REMARK  status: ('A' for Active; 'I' for Inactive)
REMARK    1  A    between atoms: _1  and  _3
REMARK    2  A    between atoms: _3  and  _4
REMARK    3  A    between atoms: _3  and  _6
REMARK    4  A    between atoms: _6  and  _7
REMARK    5  A    between atoms: _7  and  _8
REMARK    6  A    between atoms: _8  and  _9
REMARK    7  A    between atoms: _18  and  _20
REMARK    8  A    between atoms: _20  and  _21
REMARK    9  A    between atoms: _20  and  _23
REMARK   10  A    between atoms: _23  and  _24
REMARK   11  A    between atoms: _27  and  _29
REMARK   12  A    between atoms: _29  and  _30
REMARK   13  A    between atoms: _29  and  _32
REMARK   14  A    between atoms: _32  and  _33
REMARK   15  A    between atoms: _36  and  _38
REMARK   16  A    between atoms: _38  and  _39
REMARK   17  A    between atoms: _38  and  _41
REMARK   18  A    between atoms: _41  and  _42
REMARK   19  A    between atoms: _45  and  _47
REMARK   20  A    between atoms: _47  and  _48
REMARK   21  A    between atoms: _47  and  _50
REMARK   22  A    between atoms: _50  and  _51
REMARK   23  A    between atoms: _54  and  _56
REMARK   24  A    between atoms: _56  and  _57
REMARK   25  A    between atoms: _59  and  _61
REMARK   26  A    between atoms: _61  and  _62
REMARK   27  A    between atoms: _65  and  _67
REMARK   28  A    between atoms: _67  and  _68
REMARK   29  A    between atoms: _67  and  _70
REMARK   30  A    between atoms: _70  and  _71
REMARK   31  A    between atoms: _74  and  _76
REMARK   32  A    between atoms: _76  and  _77
REMARK   33  A    between atoms: _76  and  _79
REMARK   34  A    between atoms: _79  and  _80
REMARK   35  A    between atoms: _83  and  _85
REMARK   36  A    between atoms: _85  and  _86
REMARK   37  A    between atoms: _85  and  _88
REMARK   38  A    between atoms: _88  and  _89
REMARK   39  A    between atoms: _92  and  _94
REMARK   40  A    between atoms: _94  and  _95
REMARK   41  A    between atoms: _94  and  _97
REMARK   42  A    between atoms: _100  and  _102
REMARK   43  A    between atoms: _102  and  _103
REMARK   44  A    between atoms: _102  and  _105
REMARK   45  A    between atoms: _105  and  _106
REMARK   46  A    between atoms: _106  and  _107
REMARK   47  A    between atoms: _107  and  _108
REMARK   48  A    between atoms: _108  and  _109
REMARK   49  A    between atoms: _113  and  _115
REMARK   50  A    between atoms: _115  and  _116
REMARK   51  A    between atoms: _115  and  _118
REMARK   52  A    between atoms: _118  and  _119
REMARK   53  A    between atoms: _119  and  _120
REMARK   54  A    between atoms: _122  and  _124
REMARK   55  A    between atoms: _124  and  _125
REMARK   56  A    between atoms: _124  and  _127
REMARK   57  A    between atoms: _127  and  _128
REMARK   58  A    between atoms: _131  and  _133
REMARK   59  A    between atoms: _133  and  _134
REMARK   60  A    between atoms: _136  and  _138
REMARK   61  A    between atoms: _138  and  _139
REMARK   62  A    between atoms: _141  and  _143
REMARK   63  A    between atoms: _143  and  _144
REMARK   64  A    between atoms: _143  and  _146
REMARK   65  A    between atoms: _146  and  _147
REMARK   66  A    between atoms: _150  and  _152
REMARK   67  A    between atoms: _152  and  _153
REMARK   68  A    between atoms: _155  and  _157
REMARK   69  A    between atoms: _157  and  _158
REMARK   70  A    between atoms: _160  and  _162
REMARK   71  A    between atoms: _162  and  _163
REMARK   72  A    between atoms: _162  and  _165
REMARK   73  A    between atoms: _165  and  _166
REMARK   74  A    between atoms: _172  and  _174
REMARK   75  A    between atoms: _174  and  _175
REMARK   76  A    between atoms: _174  and  _177
REMARK   77  A    between atoms: _177  and  _178
REMARK   78  A    between atoms: _181  and  _183
REMARK   79  A    between atoms: _183  and  _184
REMARK   80  A    between atoms: _183  and  _186
REMARK   81  A    between atoms: _189  and  _191
REMARK   82  A    between atoms: _191  and  _192
REMARK   83  A    between atoms: _191  and  _194
REMARK   84  A    between atoms: _194  and  _195
REMARK   85  A    between atoms: _195  and  _196
REMARK   86  A    between atoms: _201  and  _203
REMARK   87  A    between atoms: _203  and  _204
REMARK   88  A    between atoms: _203  and  _206
REMARK   89  A    between atoms: _206  and  _207
REMARK   90  A    between atoms: _210  and  _212
REMARK   91  A    between atoms: _212  and  _213
REMARK   92  A    between atoms: _212  and  _215
REMARK   93  A    between atoms: _215  and  _216
REMARK   94  A    between atoms: _219  and  _221
REMARK   95  A    between atoms: _221  and  _222
REMARK   96  A    between atoms: _221  and  _224
REMARK   97  A    between atoms: _224  and  _225
REMARK   98  A    between atoms: _229  and  _230
REMARK   99  A    between atoms: _235  and  _237
REMARK  100  A    between atoms: _237  and  _238
REMARK  101  A    between atoms: _237  and  _240
REMARK  102  A    between atoms: _243  and  _245
REMARK  103  A    between atoms: _245  and  _246
REMARK  104  A    between atoms: _245  and  _248
REMARK  105  A    between atoms: _248  and  _249
REMARK  106  A    between atoms: _254  and  _256
REMARK  107  A    between atoms: _256  and  _257
REMARK  108  A    between atoms: _256  and  _259
REMARK  109  A    between atoms: _259  and  _260
REMARK  110  A    between atoms: _263  and  _265
REMARK  111  A    between atoms: _265  and  _266
REMARK  112  A    between atoms: _265  and  _268
REMARK  113  A    between atoms: _268  and  _269
REMARK  114  A    between atoms: _272  and  _274
REMARK  115  A    between atoms: _274  and  _275
REMARK  116  A    between atoms: _277  and  _279
REMARK  117  A    between atoms: _279  and  _280
REMARK  118  A    between atoms: _279  and  _282
REMARK  119  A    between atoms: _282  and  _283
REMARK  120  A    between atoms: _283  and  _284
REMARK  121  A    between atoms: _284  and  _285
REMARK  122  A    between atoms: _294  and  _296
REMARK  123  A    between atoms: _296  and  _297
REMARK  124  A    between atoms: _296  and  _299
REMARK  125  A    between atoms: _299  and  _300
REMARK  126  A    between atoms: _305  and  _307
REMARK  127  A    between atoms: _307  and  _308
REMARK  128  A    between atoms: _307  and  _310
REMARK  129  A    between atoms: _310  and  _311
REMARK  130  A    between atoms: _311  and  _312
REMARK  131  A    between atoms: _312  and  _313
REMARK  132  A    between atoms: _322  and  _324
REMARK  133  A    between atoms: _324  and  _325
REMARK  134  A    between atoms: _324  and  _327
REMARK  135  A    between atoms: _327  and  _328
REMARK  136  A    between atoms: _331  and  _333
REMARK  137  A    between atoms: _333  and  _334
REMARK  138  A    between atoms: _333  and  _336
REMARK  139  A    between atoms: _336  and  _337
REMARK  140  A    between atoms: _340  and  _342
REMARK  141  A    between atoms: _342  and  _343
REMARK  142  A    between atoms: _342  and  _345
REMARK  143  A    between atoms: _345  and  _346
REMARK  144  A    between atoms: _349  and  _351
REMARK  145  A    between atoms: _351  and  _352
REMARK  146  A    between atoms: _354  and  _356
REMARK  147  A    between atoms: _356  and  _357
REMARK  148  A    between atoms: _360  and  _362
REMARK  149  A    between atoms: _362  and  _363
REMARK  150  A    between atoms: _362  and  _365
REMARK  151  A    between atoms: _365  and  _366
REMARK  152  A    between atoms: _369  and  _371
REMARK  153  A    between atoms: _371  and  _372
REMARK  154  A    between atoms: _371  and  _374
REMARK  155  A    between atoms: _374  and  _375
REMARK  156  A    between atoms: _378  and  _380
REMARK  157  A    between atoms: _380  and  _381
REMARK  158  A    between atoms: _380  and  _383
REMARK  159  A    between atoms: _383  and  _384
REMARK  160  A    between atoms: _387  and  _389
REMARK  161  A    between atoms: _389  and  _390
REMARK  162  A    between atoms: _389  and  _392
REMARK  163  A    between atoms: _395  and  _397
REMARK  164  A    between atoms: _397  and  _398
REMARK  165  A    between atoms: _397  and  _400
REMARK  166  A    between atoms: _400  and  _401
REMARK  167  A    between atoms: _401  and  _402
REMARK  168  A    between atoms: _402  and  _403
REMARK  169  A    between atoms: _403  and  _404
REMARK  170  A    between atoms: _408  and  _410
REMARK  171  A    between atoms: _410  and  _411
REMARK  172  A    between atoms: _410  and  _413
REMARK  173  A    between atoms: _413  and  _414
REMARK  174  A    between atoms: _414  and  _415
REMARK  175  A    between atoms: _417  and  _419
REMARK  176  A    between atoms: _419  and  _420
REMARK  177  A    between atoms: _419  and  _422
REMARK  178  A    between atoms: _422  and  _423
REMARK  179  A    between atoms: _426  and  _428
REMARK  180  A    between atoms: _428  and  _429
REMARK  181  A    between atoms: _431  and  _433
REMARK  182  A    between atoms: _433  and  _434
REMARK  183  A    between atoms: _436  and  _438
REMARK  184  A    between atoms: _438  and  _439
REMARK  185  A    between atoms: _438  and  _441
REMARK  186  A    between atoms: _441  and  _442
REMARK  187  A    between atoms: _445  and  _447
REMARK  188  A    between atoms: _447  and  _448
REMARK  189  A    between atoms: _450  and  _452
REMARK  190  A    between atoms: _452  and  _453
REMARK  191  A    between atoms: _455  and  _457
REMARK  192  A    between atoms: _457  and  _458
REMARK  193  A    between atoms: _457  and  _460
REMARK  194  A    between atoms: _460  and  _461
REMARK  195  A    between atoms: _467  and  _469
REMARK  196  A    between atoms: _469  and  _470
REMARK  197  A    between atoms: _469  and  _472
REMARK  198  A    between atoms: _472  and  _473
REMARK  199  A    between atoms: _476  and  _478
REMARK  200  A    between atoms: _478  and  _479
REMARK  201  A    between atoms: _478  and  _481
REMARK  202  A    between atoms: _484  and  _486
REMARK  203  A    between atoms: _486  and  _487
REMARK  204  A    between atoms: _486  and  _489
REMARK  205  A    between atoms: _489  and  _490
REMARK  206  A    between atoms: _493  and  _495
REMARK  207  A    between atoms: _495  and  _496
REMARK  208  A    between atoms: _495  and  _498
REMARK  209  A    between atoms: _498  and  _499
REMARK  210  A    between atoms: _503  and  _504
REMARK  211  A    between atoms: _509  and  _511
REMARK  212  A    between atoms: _511  and  _512
REMARK  213  A    between atoms: _511  and  _514
REMARK  214  A    between atoms: _517  and  _519
REMARK  215  A    between atoms: _519  and  _520
REMARK  216  A    between atoms: _519  and  _522
REMARK  217  A    between atoms: _522  and  _523
REMARK  218  A    between atoms: _528  and  _530
REMARK  219  A    between atoms: _530  and  _531
REMARK  220  A    between atoms: _530  and  _533
REMARK  221  A    between atoms: _533  and  _534
REMARK  222  A    between atoms: _537  and  _539
REMARK  223  A    between atoms: _539  and  _540
REMARK  224  A    between atoms: _539  and  _542
REMARK  225  A    between atoms: _542  and  _543
REMARK  226  A    between atoms: _546  and  _548
REMARK  227  A    between atoms: _548  and  _549
REMARK  228  A    between atoms: _551  and  _553
REMARK  229  A    between atoms: _553  and  _554
REMARK  230  A    between atoms: _553  and  _556
REMARK  231  A    between atoms: _556  and  _557
REMARK  232  A    between atoms: _557  and  _558
REMARK  233  A    between atoms: _558  and  _559
REMARK                            x       y       z     vdW  Elec       q    Type
REMARK                         _______ _______ _______ _____ _____    ______ ____
ROOT
ATOM      1  O   HOH     1      70.509  15.003  35.956  0.00  0.00    +0.000 OA
ENDROOT
TORSDOF 0
REMARK  Name = ../refined-set-2016/1a94/1a94_pocket.pdb
REMARK  233 active torsions:
REMARK  status: ('A' for Active; 'I' for Inactive)
REMARK    1  A    between atoms: _1  and  _3
REMARK    2  A    between atoms: _3  and  _4
REMARK    3  A    between atoms: _3  and  _6
REMARK    4  A    between atoms: _6  and  _7
REMARK    5  A    between atoms: _7  and  _8
REMARK    6  A    between atoms: _8  and  _9
REMARK    7  A    between atoms: _18  and  _20
REMARK    8  A    between atoms: _20  and  _21
REMARK    9  A    between atoms: _20  and  _23
REMARK   10  A    between atoms: _23  and  _24
REMARK   11  A    between atoms: _27  and  _29
REMARK   12  A    between atoms: _29  and  _30
REMARK   13  A    between atoms: _29  and  _32
REMARK   14  A    between atoms: _32  and  _33
REMARK   15  A    between atoms: _36  and  _38
REMARK   16  A    between atoms: _38  and  _39
REMARK   17  A    between atoms: _38  and  _41
REMARK   18  A    between atoms: _41  and  _42
REMARK   19  A    between atoms: _45  and  _47
REMARK   20  A    between atoms: _47  and  _48
REMARK   21  A    between atoms: _47  and  _50
REMARK   22  A    between atoms: _50  and  _51
REMARK   23  A    between atoms: _54  and  _56
REMARK   24  A    between atoms: _56  and  _57
REMARK   25  A    between atoms: _59  and  _61
REMARK   26  A    between atoms: _61  and  _62
REMARK   27  A    between atoms: _65  and  _67
REMARK   28  A    between atoms: _67  and  _68
REMARK   29  A    between atoms: _67  and  _70
REMARK   30  A    between atoms: _70  and  _71
REMARK   31  A    between atoms: _74  and  _76
REMARK   32  A    between atoms: _76  and  _77
REMARK   33  A    between atoms: _76  and  _79
REMARK   34  A    between atoms: _79  and  _80
REMARK   35  A    between atoms: _83  and  _85
REMARK   36  A    between atoms: _85  and  _86
REMARK   37  A    between atoms: _85  and  _88
REMARK   38  A    between atoms: _88  and  _89
REMARK   39  A    between atoms: _92  and  _94
REMARK   40  A    between atoms: _94  and  _95
REMARK   41  A    between atoms: _94  and  _97
REMARK   42  A    between atoms: _100  and  _102
REMARK   43  A    between atoms: _102  and  _103
REMARK   44  A    between atoms: _102  and  _105
REMARK   45  A    between atoms: _105  and  _106
REMARK   46  A    between atoms: _106  and  _107
REMARK   47  A    between atoms: _107  and  _108
REMARK   48  A    between atoms: _108  and  _109
REMARK   49  A    between atoms: _113  and  _115
REMARK   50  A    between atoms: _115  and  _116
REMARK   51  A    between atoms: _115  and  _118
REMARK   52  A    between atoms: _118  and  _119
REMARK   53  A    between atoms: _119  and  _120
REMARK   54  A    between atoms: _122  and  _124
REMARK   55  A    between atoms: _124  and  _125
REMARK   56  A    between atoms: _124  and  _127
REMARK   57  A    between atoms: _127  and  _128
REMARK   58  A    between atoms: _131  and  _133
REMARK   59  A    between atoms: _133  and  _134
REMARK   60  A    between atoms: _136  and  _138
REMARK   61  A    between atoms: _138  and  _139
REMARK   62  A    between atoms: _141  and  _143
REMARK   63  A    between atoms: _143  and  _144
REMARK   64  A    between atoms: _143  and  _146
REMARK   65  A    between atoms: _146  and  _147
REMARK   66  A    between atoms: _150  and  _152
REMARK   67  A    between atoms: _152  and  _153
REMARK   68  A    between atoms: _155  and  _157
REMARK   69  A    between atoms: _157  and  _158
REMARK   70  A    between atoms: _160  and  _162
REMARK   71  A    between atoms: _162  and  _163
REMARK   72  A    between atoms: _162  and  _165
REMARK   73  A    between atoms: _165  and  _166
REMARK   74  A    between atoms: _172  and  _174
REMARK   75  A    between atoms: _174  and  _175
REMARK   76  A    between atoms: _174  and  _177
REMARK   77  A    between atoms: _177  and  _178
REMARK   78  A    between atoms: _181  and  _183
REMARK   79  A    between atoms: _183  and  _184
REMARK   80  A    between atoms: _183  and  _186
REMARK   81  A    between atoms: _189  and  _191
REMARK   82  A    between atoms: _191  and  _192
REMARK   83  A    between atoms: _191  and  _194
REMARK   84  A    between atoms: _194  and  _195
REMARK   85  A    between atoms: _195  and  _196
REMARK   86  A    between atoms: _201  and  _203
REMARK   87  A    between atoms: _203  and  _204
REMARK   88  A    between atoms: _203  and  _206
REMARK   89  A    between atoms: _206  and  _207
REMARK   90  A    between atoms: _210  and  _212
REMARK   91  A    between atoms: _212  and  _213
REMARK   92  A    between atoms: _212  and  _215
REMARK   93  A    between atoms: _215  and  _216
REMARK   94  A    between atoms: _219  and  _221
REMARK   95  A    between atoms: _221  and  _222
REMARK   96  A    between atoms: _221  and  _224
REMARK   97  A    between atoms: _224  and  _225
REMARK   98  A    between atoms: _229  and  _230
REMARK   99  A    between atoms: _235  and  _237
REMARK  100  A    between atoms: _237  and  _238
REMARK  101  A    between atoms: _237  and  _240
REMARK  102  A    between atoms: _243  and  _245
REMARK  103  A    between atoms: _245  and  _246
REMARK  104  A    between atoms: _245  and  _248
REMARK  105  A    between atoms: _248  and  _249
REMARK  106  A    between atoms: _254  and  _256
REMARK  107  A    between atoms: _256  and  _257
REMARK  108  A    between atoms: _256  and  _259
REMARK  109  A    between atoms: _259  and  _260
REMARK  110  A    between atoms: _263  and  _265
REMARK  111  A    between atoms: _265  and  _266
REMARK  112  A    between atoms: _265  and  _268
REMARK  113  A    between atoms: _268  and  _269
REMARK  114  A    between atoms: _272  and  _274
REMARK  115  A    between atoms: _274  and  _275
REMARK  116  A    between atoms: _277  and  _279
REMARK  117  A    between atoms: _279  and  _280
REMARK  118  A    between atoms: _279  and  _282
REMARK  119  A    between atoms: _282  and  _283
REMARK  120  A    between atoms: _283  and  _284
REMARK  121  A    between atoms: _284  and  _285
REMARK  122  A    between atoms: _294  and  _296
REMARK  123  A    between atoms: _296  and  _297
REMARK  124  A    between atoms: _296  and  _299
REMARK  125  A    between atoms: _299  and  _300
REMARK  126  A    between atoms: _305  and  _307
REMARK  127  A    between atoms: _307  and  _308
REMARK  128  A    between atoms: _307  and  _310
REMARK  129  A    between atoms: _310  and  _311
REMARK  130  A    between atoms: _311  and  _312
REMARK  131  A    between atoms: _312  and  _313
REMARK  132  A    between atoms: _322  and  _324
REMARK  133  A    between atoms: _324  and  _325
REMARK  134  A    between atoms: _324  and  _327
REMARK  135  A    between atoms: _327  and  _328
REMARK  136  A    between atoms: _331  and  _333
REMARK  137  A    between atoms: _333  and  _334
REMARK  138  A    between atoms: _333  and  _336
REMARK  139  A    between atoms: _336  and  _337
REMARK  140  A    between atoms: _340  and  _342
REMARK  141  A    between atoms: _342  and  _343
REMARK  142  A    between atoms: _342  and  _345
REMARK  143  A    between atoms: _345  and  _346
REMARK  144  A    between atoms: _349  and  _351
REMARK  145  A    between atoms: _351  and  _352
REMARK  146  A    between atoms: _354  and  _356
REMARK  147  A    between atoms: _356  and  _357
REMARK  148  A    between atoms: _360  and  _362
REMARK  149  A    between atoms: _362  and  _363
REMARK  150  A    between atoms: _362  and  _365
REMARK  151  A    between atoms: _365  and  _366
REMARK  152  A    between atoms: _369  and  _371
REMARK  153  A    between atoms: _371  and  _372
REMARK  154  A    between atoms: _371  and  _374
REMARK  155  A    between atoms: _374  and  _375
REMARK  156  A    between atoms: _378  and  _380
REMARK  157  A    between atoms: _380  and  _381
REMARK  158  A    between atoms: _380  and  _383
REMARK  159  A    between atoms: _383  and  _384
REMARK  160  A    between atoms: _387  and  _389
REMARK  161  A    between atoms: _389  and  _390
REMARK  162  A    between atoms: _389  and  _392
REMARK  163  A    between atoms: _395  and  _397
REMARK  164  A    between atoms: _397  and  _398
REMARK  165  A    between atoms: _397  and  _400
REMARK  166  A    between atoms: _400  and  _401
REMARK  167  A    between atoms: _401  and  _402
REMARK  168  A    between atoms: _402  and  _403
REMARK  169  A    between atoms: _403  and  _404
REMARK  170  A    between atoms: _408  and  _410
REMARK  171  A    between atoms: _410  and  _411
REMARK  172  A    between atoms: _410  and  _413
REMARK  173  A    between atoms: _413  and  _414
REMARK  174  A    between atoms: _414  and  _415
REMARK  175  A    between atoms: _417  and  _419
REMARK  176  A    between atoms: _419  and  _420
REMARK  177  A    between atoms: _419  and  _422
REMARK  178  A    between atoms: _422  and  _423
REMARK  179  A    between atoms: _426  and  _428
REMARK  180  A    between atoms: _428  and  _429
REMARK  181  A    between atoms: _431  and  _433
REMARK  182  A    between atoms: _433  and  _434
REMARK  183  A    between atoms: _436  and  _438
REMARK  184  A    between atoms: _438  and  _439
REMARK  185  A    between atoms: _438  and  _441
REMARK  186  A    between atoms: _441  and  _442
REMARK  187  A    between atoms: _445  and  _447
REMARK  188  A    between atoms: _447  and  _448
REMARK  189  A    between atoms: _450  and  _452
REMARK  190  A    between atoms: _452  and  _453
REMARK  191  A    between atoms: _455  and  _457
REMARK  192  A    between atoms: _457  and  _458
REMARK  193  A    between atoms: _457  and  _460
REMARK  194  A    between atoms: _460  and  _461
REMARK  195  A    between atoms: _467  and  _469
REMARK  196  A    between atoms: _469  and  _470
REMARK  197  A    between atoms: _469  and  _472
REMARK  198  A    between atoms: _472  and  _473
REMARK  199  A    between atoms: _476  and  _478
REMARK  200  A    between atoms: _478  and  _479
REMARK  201  A    between atoms: _478  and  _481
REMARK  202  A    between atoms: _484  and  _486
REMARK  203  A    between atoms: _486  and  _487
REMARK  204  A    between atoms: _486  and  _489
REMARK  205  A    between atoms: _489  and  _490
REMARK  206  A    between atoms: _493  and  _495
REMARK  207  A    between atoms: _495  and  _496
REMARK  208  A    between atoms: _495  and  _498
REMARK  209  A    between atoms: _498  and  _499
REMARK  210  A    between atoms: _503  and  _504
REMARK  211  A    between atoms: _509  and  _511
REMARK  212  A    between atoms: _511  and  _512
REMARK  213  A    between atoms: _511  and  _514
REMARK  214  A    between atoms: _517  and  _519
REMARK  215  A    between atoms: _519  and  _520
REMARK  216  A    between atoms: _519  and  _522
REMARK  217  A    between atoms: _522  and  _523
REMARK  218  A    between atoms: _528  and  _530
REMARK  219  A    between atoms: _530  and  _531
REMARK  220  A    between atoms: _530  and  _533
REMARK  221  A    between atoms: _533  and  _534
REMARK  222  A    between atoms: _537  and  _539
REMARK  223  A    between atoms: _539  and  _540
REMARK  224  A    between atoms: _539  and  _542
REMARK  225  A    between atoms: _542  and  _543
REMARK  226  A    between atoms: _546  and  _548
REMARK  227  A    between atoms: _548  and  _549
REMARK  228  A    between atoms: _551  and  _553
REMARK  229  A    between atoms: _553  and  _554
REMARK  230  A    between atoms: _553  and  _556
REMARK  231  A    between atoms: _556  and  _557
REMARK  232  A    between atoms: _557  and  _558
REMARK  233  A    between atoms: _558  and  _559
REMARK                            x       y       z     vdW  Elec       q    Type
REMARK                         _______ _______ _______ _____ _____    ______ ____
ROOT
ATOM      1  O   HOH     1      68.476   7.954  35.148  0.00  0.00    +0.000 OA
ENDROOT
TORSDOF 0
REMARK  Name = ../refined-set-2016/1a94/1a94_pocket.pdb
REMARK  233 active torsions:
REMARK  status: ('A' for Active; 'I' for Inactive)
REMARK    1  A    between atoms: _1  and  _3
REMARK    2  A    between atoms: _3  and  _4
REMARK    3  A    between atoms: _3  and  _6
REMARK    4  A    between atoms: _6  and  _7
REMARK    5  A    between atoms: _7  and  _8
REMARK    6  A    between atoms: _8  and  _9
REMARK    7  A    between atoms: _18  and  _20
REMARK    8  A    between atoms: _20  and  _21
REMARK    9  A    between atoms: _20  and  _23
REMARK   10  A    between atoms: _23  and  _24
REMARK   11  A    between atoms: _27  and  _29
REMARK   12  A    between atoms: _29  and  _30
REMARK   13  A    between atoms: _29  and  _32
REMARK   14  A    between atoms: _32  and  _33
REMARK   15  A    between atoms: _36  and  _38
REMARK   16  A    between atoms: _38  and  _39
REMARK   17  A    between atoms: _38  and  _41
REMARK   18  A    between atoms: _41  and  _42
REMARK   19  A    between atoms: _45  and  _47
REMARK   20  A    between atoms: _47  and  _48
REMARK   21  A    between atoms: _47  and  _50
REMARK   22  A    between atoms: _50  and  _51
REMARK   23  A    between atoms: _54  and  _56
REMARK   24  A    between atoms: _56  and  _57
REMARK   25  A    between atoms: _59  and  _61
REMARK   26  A    between atoms: _61  and  _62
REMARK   27  A    between atoms: _65  and  _67
REMARK   28  A    between atoms: _67  and  _68
REMARK   29  A    between atoms: _67  and  _70
REMARK   30  A    between atoms: _70  and  _71
REMARK   31  A    between atoms: _74  and  _76
REMARK   32  A    between atoms: _76  and  _77
REMARK   33  A    between atoms: _76  and  _79
REMARK   34  A    between atoms: _79  and  _80
REMARK   35  A    between atoms: _83  and  _85
REMARK   36  A    between atoms: _85  and  _86
REMARK   37  A    between atoms: _85  and  _88
REMARK   38  A    between atoms: _88  and  _89
REMARK   39  A    between atoms: _92  and  _94
REMARK   40  A    between atoms: _94  and  _95
REMARK   41  A    between atoms: _94  and  _97
REMARK   42  A    between atoms: _100  and  _102
REMARK   43  A    between atoms: _102  and  _103
REMARK   44  A    between atoms: _102  and  _105
REMARK   45  A    between atoms: _105  and  _106
REMARK   46  A    between atoms: _106  and  _107
REMARK   47  A    between atoms: _107  and  _108
REMARK   48  A    between atoms: _108  and  _109
REMARK   49  A    between atoms: _113  and  _115
REMARK   50  A    between atoms: _115  and  _116
REMARK   51  A    between atoms: _115  and  _118
REMARK   52  A    between atoms: _118  and  _119
REMARK   53  A    between atoms: _119  and  _120
REMARK   54  A    between atoms: _122  and  _124
REMARK   55  A    between atoms: _124  and  _125
REMARK   56  A    between atoms: _124  and  _127
REMARK   57  A    between atoms: _127  and  _128
REMARK   58  A    between atoms: _131  and  _133
REMARK   59  A    between atoms: _133  and  _134
REMARK   60  A    between atoms: _136  and  _138
REMARK   61  A    between atoms: _138  and  _139
REMARK   62  A    between atoms: _141  and  _143
REMARK   63  A    between atoms: _143  and  _144
REMARK   64  A    between atoms: _143  and  _146
REMARK   65  A    between atoms: _146  and  _147
REMARK   66  A    between atoms: _150  and  _152
REMARK   67  A    between atoms: _152  and  _153
REMARK   68  A    between atoms: _155  and  _157
REMARK   69  A    between atoms: _157  and  _158
REMARK   70  A    between atoms: _160  and  _162
REMARK   71  A    between atoms: _162  and  _163
REMARK   72  A    between atoms: _162  and  _165
REMARK   73  A    between atoms: _165  and  _166
REMARK   74  A    between atoms: _172  and  _174
REMARK   75  A    between atoms: _174  and  _175
REMARK   76  A    between atoms: _174  and  _177
REMARK   77  A    between atoms: _177  and  _178
REMARK   78  A    between atoms: _181  and  _183
REMARK   79  A    between atoms: _183  and  _184
REMARK   80  A    between atoms: _183  and  _186
REMARK   81  A    between atoms: _189  and  _191
REMARK   82  A    between atoms: _191  and  _192
REMARK   83  A    between atoms: _191  and  _194
REMARK   84  A    between atoms: _194  and  _195
REMARK   85  A    between atoms: _195  and  _196
REMARK   86  A    between atoms: _201  and  _203
REMARK   87  A    between atoms: _203  and  _204
REMARK   88  A    between atoms: _203  and  _206
REMARK   89  A    between atoms: _206  and  _207
REMARK   90  A    between atoms: _210  and  _212
REMARK   91  A    between atoms: _212  and  _213
REMARK   92  A    between atoms: _212  and  _215
REMARK   93  A    between atoms: _215  and  _216
REMARK   94  A    between atoms: _219  and  _221
REMARK   95  A    between atoms: _221  and  _222
REMARK   96  A    between atoms: _221  and  _224
REMARK   97  A    between atoms: _224  and  _225
REMARK   98  A    between atoms: _229  and  _230
REMARK   99  A    between atoms: _235  and  _237
REMARK  100  A    between atoms: _237  and  _238
REMARK  101  A    between atoms: _237  and  _240
REMARK  102  A    between atoms: _243  and  _245
REMARK  103  A    between atoms: _245  and  _246
REMARK  104  A    between atoms: _245  and  _248
REMARK  105  A    between atoms: _248  and  _249
REMARK  106  A    between atoms: _254  and  _256
REMARK  107  A    between atoms: _256  and  _257
REMARK  108  A    between atoms: _256  and  _259
REMARK  109  A    between atoms: _259  and  _260
REMARK  110  A    between atoms: _263  and  _265
REMARK  111  A    between atoms: _265  and  _266
REMARK  112  A    between atoms: _265  and  _268
REMARK  113  A    between atoms: _268  and  _269
REMARK  114  A    between atoms: _272  and  _274
REMARK  115  A    between atoms: _274  and  _275
REMARK  116  A    between atoms: _277  and  _279
REMARK  117  A    between atoms: _279  and  _280
REMARK  118  A    between atoms: _279  and  _282
REMARK  119  A    between atoms: _282  and  _283
REMARK  120  A    between atoms: _283  and  _284
REMARK  121  A    between atoms: _284  and  _285
REMARK  122  A    between atoms: _294  and  _296
REMARK  123  A    between atoms: _296  and  _297
REMARK  124  A    between atoms: _296  and  _299
REMARK  125  A    between atoms: _299  and  _300
REMARK  126  A    between atoms: _305  and  _307
REMARK  127  A    between atoms: _307  and  _308
REMARK  128  A    between atoms: _307  and  _310
REMARK  129  A    between atoms: _310  and  _311
REMARK  130  A    between atoms: _311  and  _312
REMARK  131  A    between atoms: _312  and  _313
REMARK  132  A    between atoms: _322  and  _324
REMARK  133  A    between atoms: _324  and  _325
REMARK  134  A    between atoms: _324  and  _327
REMARK  135  A    between atoms: _327  and  _328
REMARK  136  A    between atoms: _331  and  _333
REMARK  137  A    between atoms: _333  and  _334
REMARK  138  A    between atoms: _333  and  _336
REMARK  139  A    between atoms: _336  and  _337
REMARK  140  A    between atoms: _340  and  _342
REMARK  141  A    between atoms: _342  and  _343
REMARK  142  A    between atoms: _342  and  _345
REMARK  143  A    between atoms: _345  and  _346
REMARK  144  A    between atoms: _349  and  _351
REMARK  145  A    between atoms: _351  and  _352
REMARK  146  A    between atoms: _354  and  _356
REMARK  147  A    between atoms: _356  and  _357
REMARK  148  A    between atoms: _360  and  _362
REMARK  149  A    between atoms: _362  and  _363
REMARK  150  A    between atoms: _362  and  _365
REMARK  151  A    between atoms: _365  and  _366
REMARK  152  A    between atoms: _369  and  _371
REMARK  153  A    between atoms: _371  and  _372
REMARK  154  A    between atoms: _371  and  _374
REMARK  155  A    between atoms: _374  and  _375
REMARK  156  A    between atoms: _378  and  _380
REMARK  157  A    between atoms: _380  and  _381
REMARK  158  A    between atoms: _380  and  _383
REMARK  159  A    between atoms: _383  and  _384
REMARK  160  A    between atoms: _387  and  _389
REMARK  161  A    between atoms: _389  and  _390
REMARK  162  A    between atoms: _389  and  _392
REMARK  163  A    between atoms: _395  and  _397
REMARK  164  A    between atoms: _397  and  _398
REMARK  165  A    between atoms: _397  and  _400
REMARK  166  A    between atoms: _400  and  _401
REMARK  167  A    between atoms: _401  and  _402
REMARK  168  A    between atoms: _402  and  _403
REMARK  169  A    between atoms: _403  and  _404
REMARK  170  A    between atoms: _408  and  _410
REMARK  171  A    between atoms: _410  and  _411
REMARK  172  A    between atoms: _410  and  _413
REMARK  173  A    between atoms: _413  and  _414
REMARK  174  A    between atoms: _414  and  _415
REMARK  175  A    between atoms: _417  and  _419
REMARK  176  A    between atoms: _419  and  _420
REMARK  177  A    between atoms: _419  and  _422
REMARK  178  A    between atoms: _422  and  _423
REMARK  179  A    between atoms: _426  and  _428
REMARK  180  A    between atoms: _428  and  _429
REMARK  181  A    between atoms: _431  and  _433
REMARK  182  A    between atoms: _433  and  _434
REMARK  183  A    between atoms: _436  and  _438
REMARK  184  A    between atoms: _438  and  _439
REMARK  185  A    between atoms: _438  and  _441
REMARK  186  A    between atoms: _441  and  _442
REMARK  187  A    between atoms: _445  and  _447
REMARK  188  A    between atoms: _447  and  _448
REMARK  189  A    between atoms: _450  and  _452
REMARK  190  A    between atoms: _452  and  _453
REMARK  191  A    between atoms: _455  and  _457
REMARK  192  A    between atoms: _457  and  _458
REMARK  193  A    between atoms: _457  and  _460
REMARK  194  A    between atoms: _460  and  _461
REMARK  195  A    between atoms: _467  and  _469
REMARK  196  A    between atoms: _469  and  _470
REMARK  197  A    between atoms: _469  and  _472
REMARK  198  A    between atoms: _472  and  _473
REMARK  199  A    between atoms: _476  and  _478
REMARK  200  A    between atoms: _478  and  _479
REMARK  201  A    between atoms: _478  and  _481
REMARK  202  A    between atoms: _484  and  _486
REMARK  203  A    between atoms: _486  and  _487
REMARK  204  A    between atoms: _486  and  _489
REMARK  205  A    between atoms: _489  and  _490
REMARK  206  A    between atoms: _493  and  _495
REMARK  207  A    between atoms: _495  and  _496
REMARK  208  A    between atoms: _495  and  _498
REMARK  209  A    between atoms: _498  and  _499
REMARK  210  A    between atoms: _503  and  _504
REMARK  211  A    between atoms: _509  and  _511
REMARK  212  A    between atoms: _511  and  _512
REMARK  213  A    between atoms: _511  and  _514
REMARK  214  A    between atoms: _517  and  _519
REMARK  215  A    between atoms: _519  and  _520
REMARK  216  A    between atoms: _519  and  _522
REMARK  217  A    between atoms: _522  and  _523
REMARK  218  A    between atoms: _528  and  _530
REMARK  219  A    between atoms: _530  and  _531
REMARK  220  A    between atoms: _530  and  _533
REMARK  221  A    between atoms: _533  and  _534
REMARK  222  A    between atoms: _537  and  _539
REMARK  223  A    between atoms: _539  and  _540
REMARK  224  A    between atoms: _539  and  _542
REMARK  225  A    between atoms: _542  and  _543
REMARK  226  A    between atoms: _546  and  _548
REMARK  227  A    between atoms: _548  and  _549
REMARK  228  A    between atoms: _551  and  _553
REMARK  229  A    between atoms: _553  and  _554
REMARK  230  A    between atoms: _553  and  _556
REMARK  231  A    between atoms: _556  and  _557
REMARK  232  A    between atoms: _557  and  _558
REMARK  233  A    between atoms: _558  and  _559
REMARK                            x       y       z     vdW  Elec       q    Type
REMARK                         _______ _______ _______ _____ _____    ______ ____
ROOT
ATOM      1  O   HOH     1      48.407  15.478  26.166  0.00  0.00    +0.000 OA
ENDROOT
TORSDOF 0
REMARK  Name = ../refined-set-2016/1a94/1a94_pocket.pdb
REMARK  233 active torsions:
REMARK  status: ('A' for Active; 'I' for Inactive)
REMARK    1  A    between atoms: _1  and  _3
REMARK    2  A    between atoms: _3  and  _4
REMARK    3  A    between atoms: _3  and  _6
REMARK    4  A    between atoms: _6  and  _7
REMARK    5  A    between atoms: _7  and  _8
REMARK    6  A    between atoms: _8  and  _9
REMARK    7  A    between atoms: _18  and  _20
REMARK    8  A    between atoms: _20  and  _21
REMARK    9  A    between atoms: _20  and  _23
REMARK   10  A    between atoms: _23  and  _24
REMARK   11  A    between atoms: _27  and  _29
REMARK   12  A    between atoms: _29  and  _30
REMARK   13  A    between atoms: _29  and  _32
REMARK   14  A    between atoms: _32  and  _33
REMARK   15  A    between atoms: _36  and  _38
REMARK   16  A    between atoms: _38  and  _39
REMARK   17  A    between atoms: _38  and  _41
REMARK   18  A    between atoms: _41  and  _42
REMARK   19  A    between atoms: _45  and  _47
REMARK   20  A    between atoms: _47  and  _48
REMARK   21  A    between atoms: _47  and  _50
REMARK   22  A    between atoms: _50  and  _51
REMARK   23  A    between atoms: _54  and  _56
REMARK   24  A    between atoms: _56  and  _57
REMARK   25  A    between atoms: _59  and  _61
REMARK   26  A    between atoms: _61  and  _62
REMARK   27  A    between atoms: _65  and  _67
REMARK   28  A    between atoms: _67  and  _68
REMARK   29  A    between atoms: _67  and  _70
REMARK   30  A    between atoms: _70  and  _71
REMARK   31  A    between atoms: _74  and  _76
REMARK   32  A    between atoms: _76  and  _77
REMARK   33  A    between atoms: _76  and  _79
REMARK   34  A    between atoms: _79  and  _80
REMARK   35  A    between atoms: _83  and  _85
REMARK   36  A    between atoms: _85  and  _86
REMARK   37  A    between atoms: _85  and  _88
REMARK   38  A    between atoms: _88  and  _89
REMARK   39  A    between atoms: _92  and  _94
REMARK   40  A    between atoms: _94  and  _95
REMARK   41  A    between atoms: _94  and  _97
REMARK   42  A    between atoms: _100  and  _102
REMARK   43  A    between atoms: _102  and  _103
REMARK   44  A    between atoms: _102  and  _105
REMARK   45  A    between atoms: _105  and  _106
REMARK   46  A    between atoms: _106  and  _107
REMARK   47  A    between atoms: _107  and  _108
REMARK   48  A    between atoms: _108  and  _109
REMARK   49  A    between atoms: _113  and  _115
REMARK   50  A    between atoms: _115  and  _116
REMARK   51  A    between atoms: _115  and  _118
REMARK   52  A    between atoms: _118  and  _119
REMARK   53  A    between atoms: _119  and  _120
REMARK   54  A    between atoms: _122  and  _124
REMARK   55  A    between atoms: _124  and  _125
REMARK   56  A    between atoms: _124  and  _127
REMARK   57  A    between atoms: _127  and  _128
REMARK   58  A    between atoms: _131  and  _133
REMARK   59  A    between atoms: _133  and  _134
REMARK   60  A    between atoms: _136  and  _138
REMARK   61  A    between atoms: _138  and  _139
REMARK   62  A    between atoms: _141  and  _143
REMARK   63  A    between atoms: _143  and  _144
REMARK   64  A    between atoms: _143  and  _146
REMARK   65  A    between atoms: _146  and  _147
REMARK   66  A    between atoms: _150  and  _152
REMARK   67  A    between atoms: _152  and  _153
REMARK   68  A    between atoms: _155  and  _157
REMARK   69  A    between atoms: _157  and  _158
REMARK   70  A    between atoms: _160  and  _162
REMARK   71  A    between atoms: _162  and  _163
REMARK   72  A    between atoms: _162  and  _165
REMARK   73  A    between atoms: _165  and  _166
REMARK   74  A    between atoms: _172  and  _174
REMARK   75  A    between atoms: _174  and  _175
REMARK   76  A    between atoms: _174  and  _177
REMARK   77  A    between atoms: _177  and  _178
REMARK   78  A    between atoms: _181  and  _183
REMARK   79  A    between atoms: _183  and  _184
REMARK   80  A    between atoms: _183  and  _186
REMARK   81  A    between atoms: _189  and  _191
REMARK   82  A    between atoms: _191  and  _192
REMARK   83  A    between atoms: _191  and  _194
REMARK   84  A    between atoms: _194  and  _195
REMARK   85  A    between atoms: _195  and  _196
REMARK   86  A    between atoms: _201  and  _203
REMARK   87  A    between atoms: _203  and  _204
REMARK   88  A    between atoms: _203  and  _206
REMARK   89  A    between atoms: _206  and  _207
REMARK   90  A    between atoms: _210  and  _212
REMARK   91  A    between atoms: _212  and  _213
REMARK   92  A    between atoms: _212  and  _215
REMARK   93  A    between atoms: _215  and  _216
REMARK   94  A    between atoms: _219  and  _221
REMARK   95  A    between atoms: _221  and  _222
REMARK   96  A    between atoms: _221  and  _224
REMARK   97  A    between atoms: _224  and  _225
REMARK   98  A    between atoms: _229  and  _230
REMARK   99  A    between atoms: _235  and  _237
REMARK  100  A    between atoms: _237  and  _238
REMARK  101  A    between atoms: _237  and  _240
REMARK  102  A    between atoms: _243  and  _245
REMARK  103  A    between atoms: _245  and  _246
REMARK  104  A    between atoms: _245  and  _248
REMARK  105  A    between atoms: _248  and  _249
REMARK  106  A    between atoms: _254  and  _256
REMARK  107  A    between atoms: _256  and  _257
REMARK  108  A    between atoms: _256  and  _259
REMARK  109  A    between atoms: _259  and  _260
REMARK  110  A    between atoms: _263  and  _265
REMARK  111  A    between atoms: _265  and  _266
REMARK  112  A    between atoms: _265  and  _268
REMARK  113  A    between atoms: _268  and  _269
REMARK  114  A    between atoms: _272  and  _274
REMARK  115  A    between atoms: _274  and  _275
REMARK  116  A    between atoms: _277  and  _279
REMARK  117  A    between atoms: _279  and  _280
REMARK  118  A    between atoms: _279  and  _282
REMARK  119  A    between atoms: _282  and  _283
REMARK  120  A    between atoms: _283  and  _284
REMARK  121  A    between atoms: _284  and  _285
REMARK  122  A    between atoms: _294  and  _296
REMARK  123  A    between atoms: _296  and  _297
REMARK  124  A    between atoms: _296  and  _299
REMARK  125  A    between atoms: _299  and  _300
REMARK  126  A    between atoms: _305  and  _307
REMARK  127  A    between atoms: _307  and  _308
REMARK  128  A    between atoms: _307  and  _310
REMARK  129  A    between atoms: _310  and  _311
REMARK  130  A    between atoms: _311  and  _312
REMARK  131  A    between atoms: _312  and  _313
REMARK  132  A    between atoms: _322  and  _324
REMARK  133  A    between atoms: _324  and  _325
REMARK  134  A    between atoms: _324  and  _327
REMARK  135  A    between atoms: _327  and  _328
REMARK  136  A    between atoms: _331  and  _333
REMARK  137  A    between atoms: _333  and  _334
REMARK  138  A    between atoms: _333  and  _336
REMARK  139  A    between atoms: _336  and  _337
REMARK  140  A    between atoms: _340  and  _342
REMARK  141  A    between atoms: _342  and  _343
REMARK  142  A    between atoms: _342  and  _345
REMARK  143  A    between atoms: _345  and  _346
REMARK  144  A    between atoms: _349  and  _351
REMARK  145  A    between atoms: _351  and  _352
REMARK  146  A    between atoms: _354  and  _356
REMARK  147  A    between atoms: _356  and  _357
REMARK  148  A    between atoms: _360  and  _362
REMARK  149  A    between atoms: _362  and  _363
REMARK  150  A    between atoms: _362  and  _365
REMARK  151  A    between atoms: _365  and  _366
REMARK  152  A    between atoms: _369  and  _371
REMARK  153  A    between atoms: _371  and  _372
REMARK  154  A    between atoms: _371  and  _374
REMARK  155  A    between atoms: _374  and  _375
REMARK  156  A    between atoms: _378  and  _380
REMARK  157  A    between atoms: _380  and  _381
REMARK  158  A    between atoms: _380  and  _383
REMARK  159  A    between atoms: _383  and  _384
REMARK  160  A    between atoms: _387  and  _389
REMARK  161  A    between atoms: _389  and  _390
REMARK  162  A    between atoms: _389  and  _392
REMARK  163  A    between atoms: _395  and  _397
REMARK  164  A    between atoms: _397  and  _398
REMARK  165  A    between atoms: _397  and  _400
REMARK  166  A    between atoms: _400  and  _401
REMARK  167  A    between atoms: _401  and  _402
REMARK  168  A    between atoms: _402  and  _403
REMARK  169  A    between atoms: _403  and  _404
REMARK  170  A    between atoms: _408  and  _410
REMARK  171  A    between atoms: _410  and  _411
REMARK  172  A    between atoms: _410  and  _413
REMARK  173  A    between atoms: _413  and  _414
REMARK  174  A    between atoms: _414  and  _415
REMARK  175  A    between atoms: _417  and  _419
REMARK  176  A    between atoms: _419  and  _420
REMARK  177  A    between atoms: _419  and  _422
REMARK  178  A    between atoms: _422  and  _423
REMARK  179  A    between atoms: _426  and  _428
REMARK  180  A    between atoms: _428  and  _429
REMARK  181  A    between atoms: _431  and  _433
REMARK  182  A    between atoms: _433  and  _434
REMARK  183  A    between atoms: _436  and  _438
REMARK  184  A    between atoms: _438  and  _439
REMARK  185  A    between atoms: _438  and  _441
REMARK  186  A    between atoms: _441  and  _442
REMARK  187  A    between atoms: _445  and  _447
REMARK  188  A    between atoms: _447  and  _448
REMARK  189  A    between atoms: _450  and  _452
REMARK  190  A    between atoms: _452  and  _453
REMARK  191  A    between atoms: _455  and  _457
REMARK  192  A    between atoms: _457  and  _458
REMARK  193  A    between atoms: _457  and  _460
REMARK  194  A    between atoms: _460  and  _461
REMARK  195  A    between atoms: _467  and  _469
REMARK  196  A    between atoms: _469  and  _470
REMARK  197  A    between atoms: _469  and  _472
REMARK  198  A    between atoms: _472  and  _473
REMARK  199  A    between atoms: _476  and  _478
REMARK  200  A    between atoms: _478  and  _479
REMARK  201  A    between atoms: _478  and  _481
REMARK  202  A    between atoms: _484  and  _486
REMARK  203  A    between atoms: _486  and  _487
REMARK  204  A    between atoms: _486  and  _489
REMARK  205  A    between atoms: _489  and  _490
REMARK  206  A    between atoms: _493  and  _495
REMARK  207  A    between atoms: _495  and  _496
REMARK  208  A    between atoms: _495  and  _498
REMARK  209  A    between atoms: _498  and  _499
REMARK  210  A    between atoms: _503  and  _504
REMARK  211  A    between atoms: _509  and  _511
REMARK  212  A    between atoms: _511  and  _512
REMARK  213  A    between atoms: _511  and  _514
REMARK  214  A    between atoms: _517  and  _519
REMARK  215  A    between atoms: _519  and  _520
REMARK  216  A    between atoms: _519  and  _522
REMARK  217  A    between atoms: _522  and  _523
REMARK  218  A    between atoms: _528  and  _530
REMARK  219  A    between atoms: _530  and  _531
REMARK  220  A    between atoms: _530  and  _533
REMARK  221  A    between atoms: _533  and  _534
REMARK  222  A    between atoms: _537  and  _539
REMARK  223  A    between atoms: _539  and  _540
REMARK  224  A    between atoms: _539  and  _542
REMARK  225  A    between atoms: _542  and  _543
REMARK  226  A    between atoms: _546  and  _548
REMARK  227  A    between atoms: _548  and  _549
REMARK  228  A    between atoms: _551  and  _553
REMARK  229  A    between atoms: _553  and  _554
REMARK  230  A    between atoms: _553  and  _556
REMARK  231  A    between atoms: _556  and  _557
REMARK  232  A    between atoms: _557  and  _558
REMARK  233  A    between atoms: _558  and  _559
REMARK                            x       y       z     vdW  Elec       q    Type
REMARK                         _______ _______ _______ _____ _____    ______ ____
ROOT
ATOM      1  O   HOH     1      47.634  21.238  28.727  0.00  0.00    +0.000 OA
ENDROOT
TORSDOF 0
REMARK  Name = ../refined-set-2016/1a94/1a94_pocket.pdb
REMARK  233 active torsions:
REMARK  status: ('A' for Active; 'I' for Inactive)
REMARK    1  A    between atoms: _1  and  _3
REMARK    2  A    between atoms: _3  and  _4
REMARK    3  A    between atoms: _3  and  _6
REMARK    4  A    between atoms: _6  and  _7
REMARK    5  A    between atoms: _7  and  _8
REMARK    6  A    between atoms: _8  and  _9
REMARK    7  A    between atoms: _18  and  _20
REMARK    8  A    between atoms: _20  and  _21
REMARK    9  A    between atoms: _20  and  _23
REMARK   10  A    between atoms: _23  and  _24
REMARK   11  A    between atoms: _27  and  _29
REMARK   12  A    between atoms: _29  and  _30
REMARK   13  A    between atoms: _29  and  _32
REMARK   14  A    between atoms: _32  and  _33
REMARK   15  A    between atoms: _36  and  _38
REMARK   16  A    between atoms: _38  and  _39
REMARK   17  A    between atoms: _38  and  _41
REMARK   18  A    between atoms: _41  and  _42
REMARK   19  A    between atoms: _45  and  _47
REMARK   20  A    between atoms: _47  and  _48
REMARK   21  A    between atoms: _47  and  _50
REMARK   22  A    between atoms: _50  and  _51
REMARK   23  A    between atoms: _54  and  _56
REMARK   24  A    between atoms: _56  and  _57
REMARK   25  A    between atoms: _59  and  _61
REMARK   26  A    between atoms: _61  and  _62
REMARK   27  A    between atoms: _65  and  _67
REMARK   28  A    between atoms: _67  and  _68
REMARK   29  A    between atoms: _67  and  _70
REMARK   30  A    between atoms: _70  and  _71
REMARK   31  A    between atoms: _74  and  _76
REMARK   32  A    between atoms: _76  and  _77
REMARK   33  A    between atoms: _76  and  _79
REMARK   34  A    between atoms: _79  and  _80
REMARK   35  A    between atoms: _83  and  _85
REMARK   36  A    between atoms: _85  and  _86
REMARK   37  A    between atoms: _85  and  _88
REMARK   38  A    between atoms: _88  and  _89
REMARK   39  A    between atoms: _92  and  _94
REMARK   40  A    between atoms: _94  and  _95
REMARK   41  A    between atoms: _94  and  _97
REMARK   42  A    between atoms: _100  and  _102
REMARK   43  A    between atoms: _102  and  _103
REMARK   44  A    between atoms: _102  and  _105
REMARK   45  A    between atoms: _105  and  _106
REMARK   46  A    between atoms: _106  and  _107
REMARK   47  A    between atoms: _107  and  _108
REMARK   48  A    between atoms: _108  and  _109
REMARK   49  A    between atoms: _113  and  _115
REMARK   50  A    between atoms: _115  and  _116
REMARK   51  A    between atoms: _115  and  _118
REMARK   52  A    between atoms: _118  and  _119
REMARK   53  A    between atoms: _119  and  _120
REMARK   54  A    between atoms: _122  and  _124
REMARK   55  A    between atoms: _124  and  _125
REMARK   56  A    between atoms: _124  and  _127
REMARK   57  A    between atoms: _127  and  _128
REMARK   58  A    between atoms: _131  and  _133
REMARK   59  A    between atoms: _133  and  _134
REMARK   60  A    between atoms: _136  and  _138
REMARK   61  A    between atoms: _138  and  _139
REMARK   62  A    between atoms: _141  and  _143
REMARK   63  A    between atoms: _143  and  _144
REMARK   64  A    between atoms: _143  and  _146
REMARK   65  A    between atoms: _146  and  _147
REMARK   66  A    between atoms: _150  and  _152
REMARK   67  A    between atoms: _152  and  _153
REMARK   68  A    between atoms: _155  and  _157
REMARK   69  A    between atoms: _157  and  _158
REMARK   70  A    between atoms: _160  and  _162
REMARK   71  A    between atoms: _162  and  _163
REMARK   72  A    between atoms: _162  and  _165
REMARK   73  A    between atoms: _165  and  _166
REMARK   74  A    between atoms: _172  and  _174
REMARK   75  A    between atoms: _174  and  _175
REMARK   76  A    between atoms: _174  and  _177
REMARK   77  A    between atoms: _177  and  _178
REMARK   78  A    between atoms: _181  and  _183
REMARK   79  A    between atoms: _183  and  _184
REMARK   80  A    between atoms: _183  and  _186
REMARK   81  A    between atoms: _189  and  _191
REMARK   82  A    between atoms: _191  and  _192
REMARK   83  A    between atoms: _191  and  _194
REMARK   84  A    between atoms: _194  and  _195
REMARK   85  A    between atoms: _195  and  _196
REMARK   86  A    between atoms: _201  and  _203
REMARK   87  A    between atoms: _203  and  _204
REMARK   88  A    between atoms: _203  and  _206
REMARK   89  A    between atoms: _206  and  _207
REMARK   90  A    between atoms: _210  and  _212
REMARK   91  A    between atoms: _212  and  _213
REMARK   92  A    between atoms: _212  and  _215
REMARK   93  A    between atoms: _215  and  _216
REMARK   94  A    between atoms: _219  and  _221
REMARK   95  A    between atoms: _221  and  _222
REMARK   96  A    between atoms: _221  and  _224
REMARK   97  A    between atoms: _224  and  _225
REMARK   98  A    between atoms: _229  and  _230
REMARK   99  A    between atoms: _235  and  _237
REMARK  100  A    between atoms: _237  and  _238
REMARK  101  A    between atoms: _237  and  _240
REMARK  102  A    between atoms: _243  and  _245
REMARK  103  A    between atoms: _245  and  _246
REMARK  104  A    between atoms: _245  and  _248
REMARK  105  A    between atoms: _248  and  _249
REMARK  106  A    between atoms: _254  and  _256
REMARK  107  A    between atoms: _256  and  _257
REMARK  108  A    between atoms: _256  and  _259
REMARK  109  A    between atoms: _259  and  _260
REMARK  110  A    between atoms: _263  and  _265
REMARK  111  A    between atoms: _265  and  _266
REMARK  112  A    between atoms: _265  and  _268
REMARK  113  A    between atoms: _268  and  _269
REMARK  114  A    between atoms: _272  and  _274
REMARK  115  A    between atoms: _274  and  _275
REMARK  116  A    between atoms: _277  and  _279
REMARK  117  A    between atoms: _279  and  _280
REMARK  118  A    between atoms: _279  and  _282
REMARK  119  A    between atoms: _282  and  _283
REMARK  120  A    between atoms: _283  and  _284
REMARK  121  A    between atoms: _284  and  _285
REMARK  122  A    between atoms: _294  and  _296
REMARK  123  A    between atoms: _296  and  _297
REMARK  124  A    between atoms: _296  and  _299
REMARK  125  A    between atoms: _299  and  _300
REMARK  126  A    between atoms: _305  and  _307
REMARK  127  A    between atoms: _307  and  _308
REMARK  128  A    between atoms: _307  and  _310
REMARK  129  A    between atoms: _310  and  _311
REMARK  130  A    between atoms: _311  and  _312
REMARK  131  A    between atoms: _312  and  _313
REMARK  132  A    between atoms: _322  and  _324
REMARK  133  A    between atoms: _324  and  _325
REMARK  134  A    between atoms: _324  and  _327
REMARK  135  A    between atoms: _327  and  _328
REMARK  136  A    between atoms: _331  and  _333
REMARK  137  A    between atoms: _333  and  _334
REMARK  138  A    between atoms: _333  and  _336
REMARK  139  A    between atoms: _336  and  _337
REMARK  140  A    between atoms: _340  and  _342
REMARK  141  A    between atoms: _342  and  _343
REMARK  142  A    between atoms: _342  and  _345
REMARK  143  A    between atoms: _345  and  _346
REMARK  144  A    between atoms: _349  and  _351
REMARK  145  A    between atoms: _351  and  _352
REMARK  146  A    between atoms: _354  and  _356
REMARK  147  A    between atoms: _356  and  _357
REMARK  148  A    between atoms: _360  and  _362
REMARK  149  A    between atoms: _362  and  _363
REMARK  150  A    between atoms: _362  and  _365
REMARK  151  A    between atoms: _365  and  _366
REMARK  152  A    between atoms: _369  and  _371
REMARK  153  A    between atoms: _371  and  _372
REMARK  154  A    between atoms: _371  and  _374
REMARK  155  A    between atoms: _374  and  _375
REMARK  156  A    between atoms: _378  and  _380
REMARK  157  A    between atoms: _380  and  _381
REMARK  158  A    between atoms: _380  and  _383
REMARK  159  A    between atoms: _383  and  _384
REMARK  160  A    between atoms: _387  and  _389
REMARK  161  A    between atoms: _389  and  _390
REMARK  162  A    between atoms: _389  and  _392
REMARK  163  A    between atoms: _395  and  _397
REMARK  164  A    between atoms: _397  and  _398
REMARK  165  A    between atoms: _397  and  _400
REMARK  166  A    between atoms: _400  and  _401
REMARK  167  A    between atoms: _401  and  _402
REMARK  168  A    between atoms: _402  and  _403
REMARK  169  A    between atoms: _403  and  _404
REMARK  170  A    between atoms: _408  and  _410
REMARK  171  A    between atoms: _410  and  _411
REMARK  172  A    between atoms: _410  and  _413
REMARK  173  A    between atoms: _413  and  _414
REMARK  174  A    between atoms: _414  and  _415
REMARK  175  A    between atoms: _417  and  _419
REMARK  176  A    between atoms: _419  and  _420
REMARK  177  A    between atoms: _419  and  _422
REMARK  178  A    between atoms: _422  and  _423
REMARK  179  A    between atoms: _426  and  _428
REMARK  180  A    between atoms: _428  and  _429
REMARK  181  A    between atoms: _431  and  _433
REMARK  182  A    between atoms: _433  and  _434
REMARK  183  A    between atoms: _436  and  _438
REMARK  184  A    between atoms: _438  and  _439
REMARK  185  A    between atoms: _438  and  _441
REMARK  186  A    between atoms: _441  and  _442
REMARK  187  A    between atoms: _445  and  _447
REMARK  188  A    between atoms: _447  and  _448
REMARK  189  A    between atoms: _450  and  _452
REMARK  190  A    between atoms: _452  and  _453
REMARK  191  A    between atoms: _455  and  _457
REMARK  192  A    between atoms: _457  and  _458
REMARK  193  A    between atoms: _457  and  _460
REMARK  194  A    between atoms: _460  and  _461
REMARK  195  A    between atoms: _467  and  _469
REMARK  196  A    between atoms: _469  and  _470
REMARK  197  A    between atoms: _469  and  _472
REMARK  198  A    between atoms: _472  and  _473
REMARK  199  A    between atoms: _476  and  _478
REMARK  200  A    between atoms: _478  and  _479
REMARK  201  A    between atoms: _478  and  _481
REMARK  202  A    between atoms: _484  and  _486
REMARK  203  A    between atoms: _486  and  _487
REMARK  204  A    between atoms: _486  and  _489
REMARK  205  A    between atoms: _489  and  _490
REMARK  206  A    between atoms: _493  and  _495
REMARK  207  A    between atoms: _495  and  _496
REMARK  208  A    between atoms: _495  and  _498
REMARK  209  A    between atoms: _498  and  _499
REMARK  210  A    between atoms: _503  and  _504
REMARK  211  A    between atoms: _509  and  _511
REMARK  212  A    between atoms: _511  and  _512
REMARK  213  A    between atoms: _511  and  _514
REMARK  214  A    between atoms: _517  and  _519
REMARK  215  A    between atoms: _519  and  _520
REMARK  216  A    between atoms: _519  and  _522
REMARK  217  A    between atoms: _522  and  _523
REMARK  218  A    between atoms: _528  and  _530
REMARK  219  A    between atoms: _530  and  _531
REMARK  220  A    between atoms: _530  and  _533
REMARK  221  A    between atoms: _533  and  _534
REMARK  222  A    between atoms: _537  and  _539
REMARK  223  A    between atoms: _539  and  _540
REMARK  224  A    between atoms: _539  and  _542
REMARK  225  A    between atoms: _542  and  _543
REMARK  226  A    between atoms: _546  and  _548
REMARK  227  A    between atoms: _548  and  _549
REMARK  228  A    between atoms: _551  and  _553
REMARK  229  A    between atoms: _553  and  _554
REMARK  230  A    between atoms: _553  and  _556
REMARK  231  A    between atoms: _556  and  _557
REMARK  232  A    between atoms: _557  and  _558
REMARK  233  A    between atoms: _558  and  _559
REMARK                            x       y       z     vdW  Elec       q    Type
REMARK                         _______ _______ _______ _____ _____    ______ ____
ROOT
ATOM      1  O   HOH     1      70.058  11.495  33.205  0.00  0.00    +0.000 OA
ENDROOT
TORSDOF 0
REMARK  Name = ../refined-set-2016/1a94/1a94_pocket.pdb
REMARK  233 active torsions:
REMARK  status: ('A' for Active; 'I' for Inactive)
REMARK    1  A    between atoms: _1  and  _3
REMARK    2  A    between atoms: _3  and  _4
REMARK    3  A    between atoms: _3  and  _6
REMARK    4  A    between atoms: _6  and  _7
REMARK    5  A    between atoms: _7  and  _8
REMARK    6  A    between atoms: _8  and  _9
REMARK    7  A    between atoms: _18  and  _20
REMARK    8  A    between atoms: _20  and  _21
REMARK    9  A    between atoms: _20  and  _23
REMARK   10  A    between atoms: _23  and  _24
REMARK   11  A    between atoms: _27  and  _29
REMARK   12  A    between atoms: _29  and  _30
REMARK   13  A    between atoms: _29  and  _32
REMARK   14  A    between atoms: _32  and  _33
REMARK   15  A    between atoms: _36  and  _38
REMARK   16  A    between atoms: _38  and  _39
REMARK   17  A    between atoms: _38  and  _41
REMARK   18  A    between atoms: _41  and  _42
REMARK   19  A    between atoms: _45  and  _47
REMARK   20  A    between atoms: _47  and  _48
REMARK   21  A    between atoms: _47  and  _50
REMARK   22  A    between atoms: _50  and  _51
REMARK   23  A    between atoms: _54  and  _56
REMARK   24  A    between atoms: _56  and  _57
REMARK   25  A    between atoms: _59  and  _61
REMARK   26  A    between atoms: _61  and  _62
REMARK   27  A    between atoms: _65  and  _67
REMARK   28  A    between atoms: _67  and  _68
REMARK   29  A    between atoms: _67  and  _70
REMARK   30  A    between atoms: _70  and  _71
REMARK   31  A    between atoms: _74  and  _76
REMARK   32  A    between atoms: _76  and  _77
REMARK   33  A    between atoms: _76  and  _79
REMARK   34  A    between atoms: _79  and  _80
REMARK   35  A    between atoms: _83  and  _85
REMARK   36  A    between atoms: _85  and  _86
REMARK   37  A    between atoms: _85  and  _88
REMARK   38  A    between atoms: _88  and  _89
REMARK   39  A    between atoms: _92  and  _94
REMARK   40  A    between atoms: _94  and  _95
REMARK   41  A    between atoms: _94  and  _97
REMARK   42  A    between atoms: _100  and  _102
REMARK   43  A    between atoms: _102  and  _103
REMARK   44  A    between atoms: _102  and  _105
REMARK   45  A    between atoms: _105  and  _106
REMARK   46  A    between atoms: _106  and  _107
REMARK   47  A    between atoms: _107  and  _108
REMARK   48  A    between atoms: _108  and  _109
REMARK   49  A    between atoms: _113  and  _115
REMARK   50  A    between atoms: _115  and  _116
REMARK   51  A    between atoms: _115  and  _118
REMARK   52  A    between atoms: _118  and  _119
REMARK   53  A    between atoms: _119  and  _120
REMARK   54  A    between atoms: _122  and  _124
REMARK   55  A    between atoms: _124  and  _125
REMARK   56  A    between atoms: _124  and  _127
REMARK   57  A    between atoms: _127  and  _128
REMARK   58  A    between atoms: _131  and  _133
REMARK   59  A    between atoms: _133  and  _134
REMARK   60  A    between atoms: _136  and  _138
REMARK   61  A    between atoms: _138  and  _139
REMARK   62  A    between atoms: _141  and  _143
REMARK   63  A    between atoms: _143  and  _144
REMARK   64  A    between atoms: _143  and  _146
REMARK   65  A    between atoms: _146  and  _147
REMARK   66  A    between atoms: _150  and  _152
REMARK   67  A    between atoms: _152  and  _153
REMARK   68  A    between atoms: _155  and  _157
REMARK   69  A    between atoms: _157  and  _158
REMARK   70  A    between atoms: _160  and  _162
REMARK   71  A    between atoms: _162  and  _163
REMARK   72  A    between atoms: _162  and  _165
REMARK   73  A    between atoms: _165  and  _166
REMARK   74  A    between atoms: _172  and  _174
REMARK   75  A    between atoms: _174  and  _175
REMARK   76  A    between atoms: _174  and  _177
REMARK   77  A    between atoms: _177  and  _178
REMARK   78  A    between atoms: _181  and  _183
REMARK   79  A    between atoms: _183  and  _184
REMARK   80  A    between atoms: _183  and  _186
REMARK   81  A    between atoms: _189  and  _191
REMARK   82  A    between atoms: _191  and  _192
REMARK   83  A    between atoms: _191  and  _194
REMARK   84  A    between atoms: _194  and  _195
REMARK   85  A    between atoms: _195  and  _196
REMARK   86  A    between atoms: _201  and  _203
REMARK   87  A    between atoms: _203  and  _204
REMARK   88  A    between atoms: _203  and  _206
REMARK   89  A    between atoms: _206  and  _207
REMARK   90  A    between atoms: _210  and  _212
REMARK   91  A    between atoms: _212  and  _213
REMARK   92  A    between atoms: _212  and  _215
REMARK   93  A    between atoms: _215  and  _216
REMARK   94  A    between atoms: _219  and  _221
REMARK   95  A    between atoms: _221  and  _222
REMARK   96  A    between atoms: _221  and  _224
REMARK   97  A    between atoms: _224  and  _225
REMARK   98  A    between atoms: _229  and  _230
REMARK   99  A    between atoms: _235  and  _237
REMARK  100  A    between atoms: _237  and  _238
REMARK  101  A    between atoms: _237  and  _240
REMARK  102  A    between atoms: _243  and  _245
REMARK  103  A    between atoms: _245  and  _246
REMARK  104  A    between atoms: _245  and  _248
REMARK  105  A    between atoms: _248  and  _249
REMARK  106  A    between atoms: _254  and  _256
REMARK  107  A    between atoms: _256  and  _257
REMARK  108  A    between atoms: _256  and  _259
REMARK  109  A    between atoms: _259  and  _260
REMARK  110  A    between atoms: _263  and  _265
REMARK  111  A    between atoms: _265  and  _266
REMARK  112  A    between atoms: _265  and  _268
REMARK  113  A    between atoms: _268  and  _269
REMARK  114  A    between atoms: _272  and  _274
REMARK  115  A    between atoms: _274  and  _275
REMARK  116  A    between atoms: _277  and  _279
REMARK  117  A    between atoms: _279  and  _280
REMARK  118  A    between atoms: _279  and  _282
REMARK  119  A    between atoms: _282  and  _283
REMARK  120  A    between atoms: _283  and  _284
REMARK  121  A    between atoms: _284  and  _285
REMARK  122  A    between atoms: _294  and  _296
REMARK  123  A    between atoms: _296  and  _297
REMARK  124  A    between atoms: _296  and  _299
REMARK  125  A    between atoms: _299  and  _300
REMARK  126  A    between atoms: _305  and  _307
REMARK  127  A    between atoms: _307  and  _308
REMARK  128  A    between atoms: _307  and  _310
REMARK  129  A    between atoms: _310  and  _311
REMARK  130  A    between atoms: _311  and  _312
REMARK  131  A    between atoms: _312  and  _313
REMARK  132  A    between atoms: _322  and  _324
REMARK  133  A    between atoms: _324  and  _325
REMARK  134  A    between atoms: _324  and  _327
REMARK  135  A    between atoms: _327  and  _328
REMARK  136  A    between atoms: _331  and  _333
REMARK  137  A    between atoms: _333  and  _334
REMARK  138  A    between atoms: _333  and  _336
REMARK  139  A    between atoms: _336  and  _337
REMARK  140  A    between atoms: _340  and  _342
REMARK  141  A    between atoms: _342  and  _343
REMARK  142  A    between atoms: _342  and  _345
REMARK  143  A    between atoms: _345  and  _346
REMARK  144  A    between atoms: _349  and  _351
REMARK  145  A    between atoms: _351  and  _352
REMARK  146  A    between atoms: _354  and  _356
REMARK  147  A    between atoms: _356  and  _357
REMARK  148  A    between atoms: _360  and  _362
REMARK  149  A    between atoms: _362  and  _363
REMARK  150  A    between atoms: _362  and  _365
REMARK  151  A    between atoms: _365  and  _366
REMARK  152  A    between atoms: _369  and  _371
REMARK  153  A    between atoms: _371  and  _372
REMARK  154  A    between atoms: _371  and  _374
REMARK  155  A    between atoms: _374  and  _375
REMARK  156  A    between atoms: _378  and  _380
REMARK  157  A    between atoms: _380  and  _381
REMARK  158  A    between atoms: _380  and  _383
REMARK  159  A    between atoms: _383  and  _384
REMARK  160  A    between atoms: _387  and  _389
REMARK  161  A    between atoms: _389  and  _390
REMARK  162  A    between atoms: _389  and  _392
REMARK  163  A    between atoms: _395  and  _397
REMARK  164  A    between atoms: _397  and  _398
REMARK  165  A    between atoms: _397  and  _400
REMARK  166  A    between atoms: _400  and  _401
REMARK  167  A    between atoms: _401  and  _402
REMARK  168  A    between atoms: _402  and  _403
REMARK  169  A    between atoms: _403  and  _404
REMARK  170  A    between atoms: _408  and  _410
REMARK  171  A    between atoms: _410  and  _411
REMARK  172  A    between atoms: _410  and  _413
REMARK  173  A    between atoms: _413  and  _414
REMARK  174  A    between atoms: _414  and  _415
REMARK  175  A    between atoms: _417  and  _419
REMARK  176  A    between atoms: _419  and  _420
REMARK  177  A    between atoms: _419  and  _422
REMARK  178  A    between atoms: _422  and  _423
REMARK  179  A    between atoms: _426  and  _428
REMARK  180  A    between atoms: _428  and  _429
REMARK  181  A    between atoms: _431  and  _433
REMARK  182  A    between atoms: _433  and  _434
REMARK  183  A    between atoms: _436  and  _438
REMARK  184  A    between atoms: _438  and  _439
REMARK  185  A    between atoms: _438  and  _441
REMARK  186  A    between atoms: _441  and  _442
REMARK  187  A    between atoms: _445  and  _447
REMARK  188  A    between atoms: _447  and  _448
REMARK  189  A    between atoms: _450  and  _452
REMARK  190  A    between atoms: _452  and  _453
REMARK  191  A    between atoms: _455  and  _457
REMARK  192  A    between atoms: _457  and  _458
REMARK  193  A    between atoms: _457  and  _460
REMARK  194  A    between atoms: _460  and  _461
REMARK  195  A    between atoms: _467  and  _469
REMARK  196  A    between atoms: _469  and  _470
REMARK  197  A    between atoms: _469  and  _472
REMARK  198  A    between atoms: _472  and  _473
REMARK  199  A    between atoms: _476  and  _478
REMARK  200  A    between atoms: _478  and  _479
REMARK  201  A    between atoms: _478  and  _481
REMARK  202  A    between atoms: _484  and  _486
REMARK  203  A    between atoms: _486  and  _487
REMARK  204  A    between atoms: _486  and  _489
REMARK  205  A    between atoms: _489  and  _490
REMARK  206  A    between atoms: _493  and  _495
REMARK  207  A    between atoms: _495  and  _496
REMARK  208  A    between atoms: _495  and  _498
REMARK  209  A    between atoms: _498  and  _499
REMARK  210  A    between atoms: _503  and  _504
REMARK  211  A    between atoms: _509  and  _511
REMARK  212  A    between atoms: _511  and  _512
REMARK  213  A    between atoms: _511  and  _514
REMARK  214  A    between atoms: _517  and  _519
REMARK  215  A    between atoms: _519  and  _520
REMARK  216  A    between atoms: _519  and  _522
REMARK  217  A    between atoms: _522  and  _523
REMARK  218  A    between atoms: _528  and  _530
REMARK  219  A    between atoms: _530  and  _531
REMARK  220  A    between atoms: _530  and  _533
REMARK  221  A    between atoms: _533  and  _534
REMARK  222  A    between atoms: _537  and  _539
REMARK  223  A    between atoms: _539  and  _540
REMARK  224  A    between atoms: _539  and  _542
REMARK  225  A    between atoms: _542  and  _543
REMARK  226  A    between atoms: _546  and  _548
REMARK  227  A    between atoms: _548  and  _549
REMARK  228  A    between atoms: _551  and  _553
REMARK  229  A    between atoms: _553  and  _554
REMARK  230  A    between atoms: _553  and  _556
REMARK  231  A    between atoms: _556  and  _557
REMARK  232  A    between atoms: _557  and  _558
REMARK  233  A    between atoms: _558  and  _559
REMARK                            x       y       z     vdW  Elec       q    Type
REMARK                         _______ _______ _______ _____ _____    ______ ____
ROOT
ATOM      1  O   HOH     1      56.145  18.317  22.684  0.00  0.00    +0.000 OA
ENDROOT
TORSDOF 0
REMARK  Name = ../refined-set-2016/1a94/1a94_pocket.pdb
REMARK  233 active torsions:
REMARK  status: ('A' for Active; 'I' for Inactive)
REMARK    1  A    between atoms: _1  and  _3
REMARK    2  A    between atoms: _3  and  _4
REMARK    3  A    between atoms: _3  and  _6
REMARK    4  A    between atoms: _6  and  _7
REMARK    5  A    between atoms: _7  and  _8
REMARK    6  A    between atoms: _8  and  _9
REMARK    7  A    between atoms: _18  and  _20
REMARK    8  A    between atoms: _20  and  _21
REMARK    9  A    between atoms: _20  and  _23
REMARK   10  A    between atoms: _23  and  _24
REMARK   11  A    between atoms: _27  and  _29
REMARK   12  A    between atoms: _29  and  _30
REMARK   13  A    between atoms: _29  and  _32
REMARK   14  A    between atoms: _32  and  _33
REMARK   15  A    between atoms: _36  and  _38
REMARK   16  A    between atoms: _38  and  _39
REMARK   17  A    between atoms: _38  and  _41
REMARK   18  A    between atoms: _41  and  _42
REMARK   19  A    between atoms: _45  and  _47
REMARK   20  A    between atoms: _47  and  _48
REMARK   21  A    between atoms: _47  and  _50
REMARK   22  A    between atoms: _50  and  _51
REMARK   23  A    between atoms: _54  and  _56
REMARK   24  A    between atoms: _56  and  _57
REMARK   25  A    between atoms: _59  and  _61
REMARK   26  A    between atoms: _61  and  _62
REMARK   27  A    between atoms: _65  and  _67
REMARK   28  A    between atoms: _67  and  _68
REMARK   29  A    between atoms: _67  and  _70
REMARK   30  A    between atoms: _70  and  _71
REMARK   31  A    between atoms: _74  and  _76
REMARK   32  A    between atoms: _76  and  _77
REMARK   33  A    between atoms: _76  and  _79
REMARK   34  A    between atoms: _79  and  _80
REMARK   35  A    between atoms: _83  and  _85
REMARK   36  A    between atoms: _85  and  _86
REMARK   37  A    between atoms: _85  and  _88
REMARK   38  A    between atoms: _88  and  _89
REMARK   39  A    between atoms: _92  and  _94
REMARK   40  A    between atoms: _94  and  _95
REMARK   41  A    between atoms: _94  and  _97
REMARK   42  A    between atoms: _100  and  _102
REMARK   43  A    between atoms: _102  and  _103
REMARK   44  A    between atoms: _102  and  _105
REMARK   45  A    between atoms: _105  and  _106
REMARK   46  A    between atoms: _106  and  _107
REMARK   47  A    between atoms: _107  and  _108
REMARK   48  A    between atoms: _108  and  _109
REMARK   49  A    between atoms: _113  and  _115
REMARK   50  A    between atoms: _115  and  _116
REMARK   51  A    between atoms: _115  and  _118
REMARK   52  A    between atoms: _118  and  _119
REMARK   53  A    between atoms: _119  and  _120
REMARK   54  A    between atoms: _122  and  _124
REMARK   55  A    between atoms: _124  and  _125
REMARK   56  A    between atoms: _124  and  _127
REMARK   57  A    between atoms: _127  and  _128
REMARK   58  A    between atoms: _131  and  _133
REMARK   59  A    between atoms: _133  and  _134
REMARK   60  A    between atoms: _136  and  _138
REMARK   61  A    between atoms: _138  and  _139
REMARK   62  A    between atoms: _141  and  _143
REMARK   63  A    between atoms: _143  and  _144
REMARK   64  A    between atoms: _143  and  _146
REMARK   65  A    between atoms: _146  and  _147
REMARK   66  A    between atoms: _150  and  _152
REMARK   67  A    between atoms: _152  and  _153
REMARK   68  A    between atoms: _155  and  _157
REMARK   69  A    between atoms: _157  and  _158
REMARK   70  A    between atoms: _160  and  _162
REMARK   71  A    between atoms: _162  and  _163
REMARK   72  A    between atoms: _162  and  _165
REMARK   73  A    between atoms: _165  and  _166
REMARK   74  A    between atoms: _172  and  _174
REMARK   75  A    between atoms: _174  and  _175
REMARK   76  A    between atoms: _174  and  _177
REMARK   77  A    between atoms: _177  and  _178
REMARK   78  A    between atoms: _181  and  _183
REMARK   79  A    between atoms: _183  and  _184
REMARK   80  A    between atoms: _183  and  _186
REMARK   81  A    between atoms: _189  and  _191
REMARK   82  A    between atoms: _191  and  _192
REMARK   83  A    between atoms: _191  and  _194
REMARK   84  A    between atoms: _194  and  _195
REMARK   85  A    between atoms: _195  and  _196
REMARK   86  A    between atoms: _201  and  _203
REMARK   87  A    between atoms: _203  and  _204
REMARK   88  A    between atoms: _203  and  _206
REMARK   89  A    between atoms: _206  and  _207
REMARK   90  A    between atoms: _210  and  _212
REMARK   91  A    between atoms: _212  and  _213
REMARK   92  A    between atoms: _212  and  _215
REMARK   93  A    between atoms: _215  and  _216
REMARK   94  A    between atoms: _219  and  _221
REMARK   95  A    between atoms: _221  and  _222
REMARK   96  A    between atoms: _221  and  _224
REMARK   97  A    between atoms: _224  and  _225
REMARK   98  A    between atoms: _229  and  _230
REMARK   99  A    between atoms: _235  and  _237
REMARK  100  A    between atoms: _237  and  _238
REMARK  101  A    between atoms: _237  and  _240
REMARK  102  A    between atoms: _243  and  _245
REMARK  103  A    between atoms: _245  and  _246
REMARK  104  A    between atoms: _245  and  _248
REMARK  105  A    between atoms: _248  and  _249
REMARK  106  A    between atoms: _254  and  _256
REMARK  107  A    between atoms: _256  and  _257
REMARK  108  A    between atoms: _256  and  _259
REMARK  109  A    between atoms: _259  and  _260
REMARK  110  A    between atoms: _263  and  _265
REMARK  111  A    between atoms: _265  and  _266
REMARK  112  A    between atoms: _265  and  _268
REMARK  113  A    between atoms: _268  and  _269
REMARK  114  A    between atoms: _272  and  _274
REMARK  115  A    between atoms: _274  and  _275
REMARK  116  A    between atoms: _277  and  _279
REMARK  117  A    between atoms: _279  and  _280
REMARK  118  A    between atoms: _279  and  _282
REMARK  119  A    between atoms: _282  and  _283
REMARK  120  A    between atoms: _283  and  _284
REMARK  121  A    between atoms: _284  and  _285
REMARK  122  A    between atoms: _294  and  _296
REMARK  123  A    between atoms: _296  and  _297
REMARK  124  A    between atoms: _296  and  _299
REMARK  125  A    between atoms: _299  and  _300
REMARK  126  A    between atoms: _305  and  _307
REMARK  127  A    between atoms: _307  and  _308
REMARK  128  A    between atoms: _307  and  _310
REMARK  129  A    between atoms: _310  and  _311
REMARK  130  A    between atoms: _311  and  _312
REMARK  131  A    between atoms: _312  and  _313
REMARK  132  A    between atoms: _322  and  _324
REMARK  133  A    between atoms: _324  and  _325
REMARK  134  A    between atoms: _324  and  _327
REMARK  135  A    between atoms: _327  and  _328
REMARK  136  A    between atoms: _331  and  _333
REMARK  137  A    between atoms: _333  and  _334
REMARK  138  A    between atoms: _333  and  _336
REMARK  139  A    between atoms: _336  and  _337
REMARK  140  A    between atoms: _340  and  _342
REMARK  141  A    between atoms: _342  and  _343
REMARK  142  A    between atoms: _342  and  _345
REMARK  143  A    between atoms: _345  and  _346
REMARK  144  A    between atoms: _349  and  _351
REMARK  145  A    between atoms: _351  and  _352
REMARK  146  A    between atoms: _354  and  _356
REMARK  147  A    between atoms: _356  and  _357
REMARK  148  A    between atoms: _360  and  _362
REMARK  149  A    between atoms: _362  and  _363
REMARK  150  A    between atoms: _362  and  _365
REMARK  151  A    between atoms: _365  and  _366
REMARK  152  A    between atoms: _369  and  _371
REMARK  153  A    between atoms: _371  and  _372
REMARK  154  A    between atoms: _371  and  _374
REMARK  155  A    between atoms: _374  and  _375
REMARK  156  A    between atoms: _378  and  _380
REMARK  157  A    between atoms: _380  and  _381
REMARK  158  A    between atoms: _380  and  _383
REMARK  159  A    between atoms: _383  and  _384
REMARK  160  A    between atoms: _387  and  _389
REMARK  161  A    between atoms: _389  and  _390
REMARK  162  A    between atoms: _389  and  _392
REMARK  163  A    between atoms: _395  and  _397
REMARK  164  A    between atoms: _397  and  _398
REMARK  165  A    between atoms: _397  and  _400
REMARK  166  A    between atoms: _400  and  _401
REMARK  167  A    between atoms: _401  and  _402
REMARK  168  A    between atoms: _402  and  _403
REMARK  169  A    between atoms: _403  and  _404
REMARK  170  A    between atoms: _408  and  _410
REMARK  171  A    between atoms: _410  and  _411
REMARK  172  A    between atoms: _410  and  _413
REMARK  173  A    between atoms: _413  and  _414
REMARK  174  A    between atoms: _414  and  _415
REMARK  175  A    between atoms: _417  and  _419
REMARK  176  A    between atoms: _419  and  _420
REMARK  177  A    between atoms: _419  and  _422
REMARK  178  A    between atoms: _422  and  _423
REMARK  179  A    between atoms: _426  and  _428
REMARK  180  A    between atoms: _428  and  _429
REMARK  181  A    between atoms: _431  and  _433
REMARK  182  A    between atoms: _433  and  _434
REMARK  183  A    between atoms: _436  and  _438
REMARK  184  A    between atoms: _438  and  _439
REMARK  185  A    between atoms: _438  and  _441
REMARK  186  A    between atoms: _441  and  _442
REMARK  187  A    between atoms: _445  and  _447
REMARK  188  A    between atoms: _447  and  _448
REMARK  189  A    between atoms: _450  and  _452
REMARK  190  A    between atoms: _452  and  _453
REMARK  191  A    between atoms: _455  and  _457
REMARK  192  A    between atoms: _457  and  _458
REMARK  193  A    between atoms: _457  and  _460
REMARK  194  A    between atoms: _460  and  _461
REMARK  195  A    between atoms: _467  and  _469
REMARK  196  A    between atoms: _469  and  _470
REMARK  197  A    between atoms: _469  and  _472
REMARK  198  A    between atoms: _472  and  _473
REMARK  199  A    between atoms: _476  and  _478
REMARK  200  A    between atoms: _478  and  _479
REMARK  201  A    between atoms: _478  and  _481
REMARK  202  A    between atoms: _484  and  _486
REMARK  203  A    between atoms: _486  and  _487
REMARK  204  A    between atoms: _486  and  _489
REMARK  205  A    between atoms: _489  and  _490
REMARK  206  A    between atoms: _493  and  _495
REMARK  207  A    between atoms: _495  and  _496
REMARK  208  A    between atoms: _495  and  _498
REMARK  209  A    between atoms: _498  and  _499
REMARK  210  A    between atoms: _503  and  _504
REMARK  211  A    between atoms: _509  and  _511
REMARK  212  A    between atoms: _511  and  _512
REMARK  213  A    between atoms: _511  and  _514
REMARK  214  A    between atoms: _517  and  _519
REMARK  215  A    between atoms: _519  and  _520
REMARK  216  A    between atoms: _519  and  _522
REMARK  217  A    between atoms: _522  and  _523
REMARK  218  A    between atoms: _528  and  _530
REMARK  219  A    between atoms: _530  and  _531
REMARK  220  A    between atoms: _530  and  _533
REMARK  221  A    between atoms: _533  and  _534
REMARK  222  A    between atoms: _537  and  _539
REMARK  223  A    between atoms: _539  and  _540
REMARK  224  A    between atoms: _539  and  _542
REMARK  225  A    between atoms: _542  and  _543
REMARK  226  A    between atoms: _546  and  _548
REMARK  227  A    between atoms: _548  and  _549
REMARK  228  A    between atoms: _551  and  _553
REMARK  229  A    between atoms: _553  and  _554
REMARK  230  A    between atoms: _553  and  _556
REMARK  231  A    between atoms: _556  and  _557
REMARK  232  A    between atoms: _557  and  _558
REMARK  233  A    between atoms: _558  and  _559
REMARK                            x       y       z     vdW  Elec       q    Type
REMARK                         _______ _______ _______ _____ _____    ______ ____
ROOT
ATOM      1  O   HOH     1      49.196  23.272  24.018  0.00  0.00    +0.000 OA
ENDROOT
TORSDOF 0
REMARK  Name = ../refined-set-2016/1a94/1a94_pocket.pdb
REMARK  233 active torsions:
REMARK  status: ('A' for Active; 'I' for Inactive)
REMARK    1  A    between atoms: _1  and  _3
REMARK    2  A    between atoms: _3  and  _4
REMARK    3  A    between atoms: _3  and  _6
REMARK    4  A    between atoms: _6  and  _7
REMARK    5  A    between atoms: _7  and  _8
REMARK    6  A    between atoms: _8  and  _9
REMARK    7  A    between atoms: _18  and  _20
REMARK    8  A    between atoms: _20  and  _21
REMARK    9  A    between atoms: _20  and  _23
REMARK   10  A    between atoms: _23  and  _24
REMARK   11  A    between atoms: _27  and  _29
REMARK   12  A    between atoms: _29  and  _30
REMARK   13  A    between atoms: _29  and  _32
REMARK   14  A    between atoms: _32  and  _33
REMARK   15  A    between atoms: _36  and  _38
REMARK   16  A    between atoms: _38  and  _39
REMARK   17  A    between atoms: _38  and  _41
REMARK   18  A    between atoms: _41  and  _42
REMARK   19  A    between atoms: _45  and  _47
REMARK   20  A    between atoms: _47  and  _48
REMARK   21  A    between atoms: _47  and  _50
REMARK   22  A    between atoms: _50  and  _51
REMARK   23  A    between atoms: _54  and  _56
REMARK   24  A    between atoms: _56  and  _57
REMARK   25  A    between atoms: _59  and  _61
REMARK   26  A    between atoms: _61  and  _62
REMARK   27  A    between atoms: _65  and  _67
REMARK   28  A    between atoms: _67  and  _68
REMARK   29  A    between atoms: _67  and  _70
REMARK   30  A    between atoms: _70  and  _71
REMARK   31  A    between atoms: _74  and  _76
REMARK   32  A    between atoms: _76  and  _77
REMARK   33  A    between atoms: _76  and  _79
REMARK   34  A    between atoms: _79  and  _80
REMARK   35  A    between atoms: _83  and  _85
REMARK   36  A    between atoms: _85  and  _86
REMARK   37  A    between atoms: _85  and  _88
REMARK   38  A    between atoms: _88  and  _89
REMARK   39  A    between atoms: _92  and  _94
REMARK   40  A    between atoms: _94  and  _95
REMARK   41  A    between atoms: _94  and  _97
REMARK   42  A    between atoms: _100  and  _102
REMARK   43  A    between atoms: _102  and  _103
REMARK   44  A    between atoms: _102  and  _105
REMARK   45  A    between atoms: _105  and  _106
REMARK   46  A    between atoms: _106  and  _107
REMARK   47  A    between atoms: _107  and  _108
REMARK   48  A    between atoms: _108  and  _109
REMARK   49  A    between atoms: _113  and  _115
REMARK   50  A    between atoms: _115  and  _116
REMARK   51  A    between atoms: _115  and  _118
REMARK   52  A    between atoms: _118  and  _119
REMARK   53  A    between atoms: _119  and  _120
REMARK   54  A    between atoms: _122  and  _124
REMARK   55  A    between atoms: _124  and  _125
REMARK   56  A    between atoms: _124  and  _127
REMARK   57  A    between atoms: _127  and  _128
REMARK   58  A    between atoms: _131  and  _133
REMARK   59  A    between atoms: _133  and  _134
REMARK   60  A    between atoms: _136  and  _138
REMARK   61  A    between atoms: _138  and  _139
REMARK   62  A    between atoms: _141  and  _143
REMARK   63  A    between atoms: _143  and  _144
REMARK   64  A    between atoms: _143  and  _146
REMARK   65  A    between atoms: _146  and  _147
REMARK   66  A    between atoms: _150  and  _152
REMARK   67  A    between atoms: _152  and  _153
REMARK   68  A    between atoms: _155  and  _157
REMARK   69  A    between atoms: _157  and  _158
REMARK   70  A    between atoms: _160  and  _162
REMARK   71  A    between atoms: _162  and  _163
REMARK   72  A    between atoms: _162  and  _165
REMARK   73  A    between atoms: _165  and  _166
REMARK   74  A    between atoms: _172  and  _174
REMARK   75  A    between atoms: _174  and  _175
REMARK   76  A    between atoms: _174  and  _177
REMARK   77  A    between atoms: _177  and  _178
REMARK   78  A    between atoms: _181  and  _183
REMARK   79  A    between atoms: _183  and  _184
REMARK   80  A    between atoms: _183  and  _186
REMARK   81  A    between atoms: _189  and  _191
REMARK   82  A    between atoms: _191  and  _192
REMARK   83  A    between atoms: _191  and  _194
REMARK   84  A    between atoms: _194  and  _195
REMARK   85  A    between atoms: _195  and  _196
REMARK   86  A    between atoms: _201  and  _203
REMARK   87  A    between atoms: _203  and  _204
REMARK   88  A    between atoms: _203  and  _206
REMARK   89  A    between atoms: _206  and  _207
REMARK   90  A    between atoms: _210  and  _212
REMARK   91  A    between atoms: _212  and  _213
REMARK   92  A    between atoms: _212  and  _215
REMARK   93  A    between atoms: _215  and  _216
REMARK   94  A    between atoms: _219  and  _221
REMARK   95  A    between atoms: _221  and  _222
REMARK   96  A    between atoms: _221  and  _224
REMARK   97  A    between atoms: _224  and  _225
REMARK   98  A    between atoms: _229  and  _230
REMARK   99  A    between atoms: _235  and  _237
REMARK  100  A    between atoms: _237  and  _238
REMARK  101  A    between atoms: _237  and  _240
REMARK  102  A    between atoms: _243  and  _245
REMARK  103  A    between atoms: _245  and  _246
REMARK  104  A    between atoms: _245  and  _248
REMARK  105  A    between atoms: _248  and  _249
REMARK  106  A    between atoms: _254  and  _256
REMARK  107  A    between atoms: _256  and  _257
REMARK  108  A    between atoms: _256  and  _259
REMARK  109  A    between atoms: _259  and  _260
REMARK  110  A    between atoms: _263  and  _265
REMARK  111  A    between atoms: _265  and  _266
REMARK  112  A    between atoms: _265  and  _268
REMARK  113  A    between atoms: _268  and  _269
REMARK  114  A    between atoms: _272  and  _274
REMARK  115  A    between atoms: _274  and  _275
REMARK  116  A    between atoms: _277  and  _279
REMARK  117  A    between atoms: _279  and  _280
REMARK  118  A    between atoms: _279  and  _282
REMARK  119  A    between atoms: _282  and  _283
REMARK  120  A    between atoms: _283  and  _284
REMARK  121  A    between atoms: _284  and  _285
REMARK  122  A    between atoms: _294  and  _296
REMARK  123  A    between atoms: _296  and  _297
REMARK  124  A    between atoms: _296  and  _299
REMARK  125  A    between atoms: _299  and  _300
REMARK  126  A    between atoms: _305  and  _307
REMARK  127  A    between atoms: _307  and  _308
REMARK  128  A    between atoms: _307  and  _310
REMARK  129  A    between atoms: _310  and  _311
REMARK  130  A    between atoms: _311  and  _312
REMARK  131  A    between atoms: _312  and  _313
REMARK  132  A    between atoms: _322  and  _324
REMARK  133  A    between atoms: _324  and  _325
REMARK  134  A    between atoms: _324  and  _327
REMARK  135  A    between atoms: _327  and  _328
REMARK  136  A    between atoms: _331  and  _333
REMARK  137  A    between atoms: _333  and  _334
REMARK  138  A    between atoms: _333  and  _336
REMARK  139  A    between atoms: _336  and  _337
REMARK  140  A    between atoms: _340  and  _342
REMARK  141  A    between atoms: _342  and  _343
REMARK  142  A    between atoms: _342  and  _345
REMARK  143  A    between atoms: _345  and  _346
REMARK  144  A    between atoms: _349  and  _351
REMARK  145  A    between atoms: _351  and  _352
REMARK  146  A    between atoms: _354  and  _356
REMARK  147  A    between atoms: _356  and  _357
REMARK  148  A    between atoms: _360  and  _362
REMARK  149  A    between atoms: _362  and  _363
REMARK  150  A    between atoms: _362  and  _365
REMARK  151  A    between atoms: _365  and  _366
REMARK  152  A    between atoms: _369  and  _371
REMARK  153  A    between atoms: _371  and  _372
REMARK  154  A    between atoms: _371  and  _374
REMARK  155  A    between atoms: _374  and  _375
REMARK  156  A    between atoms: _378  and  _380
REMARK  157  A    between atoms: _380  and  _381
REMARK  158  A    between atoms: _380  and  _383
REMARK  159  A    between atoms: _383  and  _384
REMARK  160  A    between atoms: _387  and  _389
REMARK  161  A    between atoms: _389  and  _390
REMARK  162  A    between atoms: _389  and  _392
REMARK  163  A    between atoms: _395  and  _397
REMARK  164  A    between atoms: _397  and  _398
REMARK  165  A    between atoms: _397  and  _400
REMARK  166  A    between atoms: _400  and  _401
REMARK  167  A    between atoms: _401  and  _402
REMARK  168  A    between atoms: _402  and  _403
REMARK  169  A    between atoms: _403  and  _404
REMARK  170  A    between atoms: _408  and  _410
REMARK  171  A    between atoms: _410  and  _411
REMARK  172  A    between atoms: _410  and  _413
REMARK  173  A    between atoms: _413  and  _414
REMARK  174  A    between atoms: _414  and  _415
REMARK  175  A    between atoms: _417  and  _419
REMARK  176  A    between atoms: _419  and  _420
REMARK  177  A    between atoms: _419  and  _422
REMARK  178  A    between atoms: _422  and  _423
REMARK  179  A    between atoms: _426  and  _428
REMARK  180  A    between atoms: _428  and  _429
REMARK  181  A    between atoms: _431  and  _433
REMARK  182  A    between atoms: _433  and  _434
REMARK  183  A    between atoms: _436  and  _438
REMARK  184  A    between atoms: _438  and  _439
REMARK  185  A    between atoms: _438  and  _441
REMARK  186  A    between atoms: _441  and  _442
REMARK  187  A    between atoms: _445  and  _447
REMARK  188  A    between atoms: _447  and  _448
REMARK  189  A    between atoms: _450  and  _452
REMARK  190  A    between atoms: _452  and  _453
REMARK  191  A    between atoms: _455  and  _457
REMARK  192  A    between atoms: _457  and  _458
REMARK  193  A    between atoms: _457  and  _460
REMARK  194  A    between atoms: _460  and  _461
REMARK  195  A    between atoms: _467  and  _469
REMARK  196  A    between atoms: _469  and  _470
REMARK  197  A    between atoms: _469  and  _472
REMARK  198  A    between atoms: _472  and  _473
REMARK  199  A    between atoms: _476  and  _478
REMARK  200  A    between atoms: _478  and  _479
REMARK  201  A    between atoms: _478  and  _481
REMARK  202  A    between atoms: _484  and  _486
REMARK  203  A    between atoms: _486  and  _487
REMARK  204  A    between atoms: _486  and  _489
REMARK  205  A    between atoms: _489  and  _490
REMARK  206  A    between atoms: _493  and  _495
REMARK  207  A    between atoms: _495  and  _496
REMARK  208  A    between atoms: _495  and  _498
REMARK  209  A    between atoms: _498  and  _499
REMARK  210  A    between atoms: _503  and  _504
REMARK  211  A    between atoms: _509  and  _511
REMARK  212  A    between atoms: _511  and  _512
REMARK  213  A    between atoms: _511  and  _514
REMARK  214  A    between atoms: _517  and  _519
REMARK  215  A    between atoms: _519  and  _520
REMARK  216  A    between atoms: _519  and  _522
REMARK  217  A    between atoms: _522  and  _523
REMARK  218  A    between atoms: _528  and  _530
REMARK  219  A    between atoms: _530  and  _531
REMARK  220  A    between atoms: _530  and  _533
REMARK  221  A    between atoms: _533  and  _534
REMARK  222  A    between atoms: _537  and  _539
REMARK  223  A    between atoms: _539  and  _540
REMARK  224  A    between atoms: _539  and  _542
REMARK  225  A    between atoms: _542  and  _543
REMARK  226  A    between atoms: _546  and  _548
REMARK  227  A    between atoms: _548  and  _549
REMARK  228  A    between atoms: _551  and  _553
REMARK  229  A    between atoms: _553  and  _554
REMARK  230  A    between atoms: _553  and  _556
REMARK  231  A    between atoms: _556  and  _557
REMARK  232  A    between atoms: _557  and  _558
REMARK  233  A    between atoms: _558  and  _559
REMARK                            x       y       z     vdW  Elec       q    Type
REMARK                         _______ _______ _______ _____ _____    ______ ____
ROOT
ATOM      1  O   HOH     1      53.729  29.106  25.322  0.00  0.00    +0.000 OA
ENDROOT
TORSDOF 0
REMARK  Name = ../refined-set-2016/1a94/1a94_pocket.pdb
REMARK  233 active torsions:
REMARK  status: ('A' for Active; 'I' for Inactive)
REMARK    1  A    between atoms: _1  and  _3
REMARK    2  A    between atoms: _3  and  _4
REMARK    3  A    between atoms: _3  and  _6
REMARK    4  A    between atoms: _6  and  _7
REMARK    5  A    between atoms: _7  and  _8
REMARK    6  A    between atoms: _8  and  _9
REMARK    7  A    between atoms: _18  and  _20
REMARK    8  A    between atoms: _20  and  _21
REMARK    9  A    between atoms: _20  and  _23
REMARK   10  A    between atoms: _23  and  _24
REMARK   11  A    between atoms: _27  and  _29
REMARK   12  A    between atoms: _29  and  _30
REMARK   13  A    between atoms: _29  and  _32
REMARK   14  A    between atoms: _32  and  _33
REMARK   15  A    between atoms: _36  and  _38
REMARK   16  A    between atoms: _38  and  _39
REMARK   17  A    between atoms: _38  and  _41
REMARK   18  A    between atoms: _41  and  _42
REMARK   19  A    between atoms: _45  and  _47
REMARK   20  A    between atoms: _47  and  _48
REMARK   21  A    between atoms: _47  and  _50
REMARK   22  A    between atoms: _50  and  _51
REMARK   23  A    between atoms: _54  and  _56
REMARK   24  A    between atoms: _56  and  _57
REMARK   25  A    between atoms: _59  and  _61
REMARK   26  A    between atoms: _61  and  _62
REMARK   27  A    between atoms: _65  and  _67
REMARK   28  A    between atoms: _67  and  _68
REMARK   29  A    between atoms: _67  and  _70
REMARK   30  A    between atoms: _70  and  _71
REMARK   31  A    between atoms: _74  and  _76
REMARK   32  A    between atoms: _76  and  _77
REMARK   33  A    between atoms: _76  and  _79
REMARK   34  A    between atoms: _79  and  _80
REMARK   35  A    between atoms: _83  and  _85
REMARK   36  A    between atoms: _85  and  _86
REMARK   37  A    between atoms: _85  and  _88
REMARK   38  A    between atoms: _88  and  _89
REMARK   39  A    between atoms: _92  and  _94
REMARK   40  A    between atoms: _94  and  _95
REMARK   41  A    between atoms: _94  and  _97
REMARK   42  A    between atoms: _100  and  _102
REMARK   43  A    between atoms: _102  and  _103
REMARK   44  A    between atoms: _102  and  _105
REMARK   45  A    between atoms: _105  and  _106
REMARK   46  A    between atoms: _106  and  _107
REMARK   47  A    between atoms: _107  and  _108
REMARK   48  A    between atoms: _108  and  _109
REMARK   49  A    between atoms: _113  and  _115
REMARK   50  A    between atoms: _115  and  _116
REMARK   51  A    between atoms: _115  and  _118
REMARK   52  A    between atoms: _118  and  _119
REMARK   53  A    between atoms: _119  and  _120
REMARK   54  A    between atoms: _122  and  _124
REMARK   55  A    between atoms: _124  and  _125
REMARK   56  A    between atoms: _124  and  _127
REMARK   57  A    between atoms: _127  and  _128
REMARK   58  A    between atoms: _131  and  _133
REMARK   59  A    between atoms: _133  and  _134
REMARK   60  A    between atoms: _136  and  _138
REMARK   61  A    between atoms: _138  and  _139
REMARK   62  A    between atoms: _141  and  _143
REMARK   63  A    between atoms: _143  and  _144
REMARK   64  A    between atoms: _143  and  _146
REMARK   65  A    between atoms: _146  and  _147
REMARK   66  A    between atoms: _150  and  _152
REMARK   67  A    between atoms: _152  and  _153
REMARK   68  A    between atoms: _155  and  _157
REMARK   69  A    between atoms: _157  and  _158
REMARK   70  A    between atoms: _160  and  _162
REMARK   71  A    between atoms: _162  and  _163
REMARK   72  A    between atoms: _162  and  _165
REMARK   73  A    between atoms: _165  and  _166
REMARK   74  A    between atoms: _172  and  _174
REMARK   75  A    between atoms: _174  and  _175
REMARK   76  A    between atoms: _174  and  _177
REMARK   77  A    between atoms: _177  and  _178
REMARK   78  A    between atoms: _181  and  _183
REMARK   79  A    between atoms: _183  and  _184
REMARK   80  A    between atoms: _183  and  _186
REMARK   81  A    between atoms: _189  and  _191
REMARK   82  A    between atoms: _191  and  _192
REMARK   83  A    between atoms: _191  and  _194
REMARK   84  A    between atoms: _194  and  _195
REMARK   85  A    between atoms: _195  and  _196
REMARK   86  A    between atoms: _201  and  _203
REMARK   87  A    between atoms: _203  and  _204
REMARK   88  A    between atoms: _203  and  _206
REMARK   89  A    between atoms: _206  and  _207
REMARK   90  A    between atoms: _210  and  _212
REMARK   91  A    between atoms: _212  and  _213
REMARK   92  A    between atoms: _212  and  _215
REMARK   93  A    between atoms: _215  and  _216
REMARK   94  A    between atoms: _219  and  _221
REMARK   95  A    between atoms: _221  and  _222
REMARK   96  A    between atoms: _221  and  _224
REMARK   97  A    between atoms: _224  and  _225
REMARK   98  A    between atoms: _229  and  _230
REMARK   99  A    between atoms: _235  and  _237
REMARK  100  A    between atoms: _237  and  _238
REMARK  101  A    between atoms: _237  and  _240
REMARK  102  A    between atoms: _243  and  _245
REMARK  103  A    between atoms: _245  and  _246
REMARK  104  A    between atoms: _245  and  _248
REMARK  105  A    between atoms: _248  and  _249
REMARK  106  A    between atoms: _254  and  _256
REMARK  107  A    between atoms: _256  and  _257
REMARK  108  A    between atoms: _256  and  _259
REMARK  109  A    between atoms: _259  and  _260
REMARK  110  A    between atoms: _263  and  _265
REMARK  111  A    between atoms: _265  and  _266
REMARK  112  A    between atoms: _265  and  _268
REMARK  113  A    between atoms: _268  and  _269
REMARK  114  A    between atoms: _272  and  _274
REMARK  115  A    between atoms: _274  and  _275
REMARK  116  A    between atoms: _277  and  _279
REMARK  117  A    between atoms: _279  and  _280
REMARK  118  A    between atoms: _279  and  _282
REMARK  119  A    between atoms: _282  and  _283
REMARK  120  A    between atoms: _283  and  _284
REMARK  121  A    between atoms: _284  and  _285
REMARK  122  A    between atoms: _294  and  _296
REMARK  123  A    between atoms: _296  and  _297
REMARK  124  A    between atoms: _296  and  _299
REMARK  125  A    between atoms: _299  and  _300
REMARK  126  A    between atoms: _305  and  _307
REMARK  127  A    between atoms: _307  and  _308
REMARK  128  A    between atoms: _307  and  _310
REMARK  129  A    between atoms: _310  and  _311
REMARK  130  A    between atoms: _311  and  _312
REMARK  131  A    between atoms: _312  and  _313
REMARK  132  A    between atoms: _322  and  _324
REMARK  133  A    between atoms: _324  and  _325
REMARK  134  A    between atoms: _324  and  _327
REMARK  135  A    between atoms: _327  and  _328
REMARK  136  A    between atoms: _331  and  _333
REMARK  137  A    between atoms: _333  and  _334
REMARK  138  A    between atoms: _333  and  _336
REMARK  139  A    between atoms: _336  and  _337
REMARK  140  A    between atoms: _340  and  _342
REMARK  141  A    between atoms: _342  and  _343
REMARK  142  A    between atoms: _342  and  _345
REMARK  143  A    between atoms: _345  and  _346
REMARK  144  A    between atoms: _349  and  _351
REMARK  145  A    between atoms: _351  and  _352
REMARK  146  A    between atoms: _354  and  _356
REMARK  147  A    between atoms: _356  and  _357
REMARK  148  A    between atoms: _360  and  _362
REMARK  149  A    between atoms: _362  and  _363
REMARK  150  A    between atoms: _362  and  _365
REMARK  151  A    between atoms: _365  and  _366
REMARK  152  A    between atoms: _369  and  _371
REMARK  153  A    between atoms: _371  and  _372
REMARK  154  A    between atoms: _371  and  _374
REMARK  155  A    between atoms: _374  and  _375
REMARK  156  A    between atoms: _378  and  _380
REMARK  157  A    between atoms: _380  and  _381
REMARK  158  A    between atoms: _380  and  _383
REMARK  159  A    between atoms: _383  and  _384
REMARK  160  A    between atoms: _387  and  _389
REMARK  161  A    between atoms: _389  and  _390
REMARK  162  A    between atoms: _389  and  _392
REMARK  163  A    between atoms: _395  and  _397
REMARK  164  A    between atoms: _397  and  _398
REMARK  165  A    between atoms: _397  and  _400
REMARK  166  A    between atoms: _400  and  _401
REMARK  167  A    between atoms: _401  and  _402
REMARK  168  A    between atoms: _402  and  _403
REMARK  169  A    between atoms: _403  and  _404
REMARK  170  A    between atoms: _408  and  _410
REMARK  171  A    between atoms: _410  and  _411
REMARK  172  A    between atoms: _410  and  _413
REMARK  173  A    between atoms: _413  and  _414
REMARK  174  A    between atoms: _414  and  _415
REMARK  175  A    between atoms: _417  and  _419
REMARK  176  A    between atoms: _419  and  _420
REMARK  177  A    between atoms: _419  and  _422
REMARK  178  A    between atoms: _422  and  _423
REMARK  179  A    between atoms: _426  and  _428
REMARK  180  A    between atoms: _428  and  _429
REMARK  181  A    between atoms: _431  and  _433
REMARK  182  A    between atoms: _433  and  _434
REMARK  183  A    between atoms: _436  and  _438
REMARK  184  A    between atoms: _438  and  _439
REMARK  185  A    between atoms: _438  and  _441
REMARK  186  A    between atoms: _441  and  _442
REMARK  187  A    between atoms: _445  and  _447
REMARK  188  A    between atoms: _447  and  _448
REMARK  189  A    between atoms: _450  and  _452
REMARK  190  A    between atoms: _452  and  _453
REMARK  191  A    between atoms: _455  and  _457
REMARK  192  A    between atoms: _457  and  _458
REMARK  193  A    between atoms: _457  and  _460
REMARK  194  A    between atoms: _460  and  _461
REMARK  195  A    between atoms: _467  and  _469
REMARK  196  A    between atoms: _469  and  _470
REMARK  197  A    between atoms: _469  and  _472
REMARK  198  A    between atoms: _472  and  _473
REMARK  199  A    between atoms: _476  and  _478
REMARK  200  A    between atoms: _478  and  _479
REMARK  201  A    between atoms: _478  and  _481
REMARK  202  A    between atoms: _484  and  _486
REMARK  203  A    between atoms: _486  and  _487
REMARK  204  A    between atoms: _486  and  _489
REMARK  205  A    between atoms: _489  and  _490
REMARK  206  A    between atoms: _493  and  _495
REMARK  207  A    between atoms: _495  and  _496
REMARK  208  A    between atoms: _495  and  _498
REMARK  209  A    between atoms: _498  and  _499
REMARK  210  A    between atoms: _503  and  _504
REMARK  211  A    between atoms: _509  and  _511
REMARK  212  A    between atoms: _511  and  _512
REMARK  213  A    between atoms: _511  and  _514
REMARK  214  A    between atoms: _517  and  _519
REMARK  215  A    between atoms: _519  and  _520
REMARK  216  A    between atoms: _519  and  _522
REMARK  217  A    between atoms: _522  and  _523
REMARK  218  A    between atoms: _528  and  _530
REMARK  219  A    between atoms: _530  and  _531
REMARK  220  A    between atoms: _530  and  _533
REMARK  221  A    between atoms: _533  and  _534
REMARK  222  A    between atoms: _537  and  _539
REMARK  223  A    between atoms: _539  and  _540
REMARK  224  A    between atoms: _539  and  _542
REMARK  225  A    between atoms: _542  and  _543
REMARK  226  A    between atoms: _546  and  _548
REMARK  227  A    between atoms: _548  and  _549
REMARK  228  A    between atoms: _551  and  _553
REMARK  229  A    between atoms: _553  and  _554
REMARK  230  A    between atoms: _553  and  _556
REMARK  231  A    between atoms: _556  and  _557
REMARK  232  A    between atoms: _557  and  _558
REMARK  233  A    between atoms: _558  and  _559
REMARK                            x       y       z     vdW  Elec       q    Type
REMARK                         _______ _______ _______ _____ _____    ______ ____
ROOT
ATOM      1  O   HOH     1      56.406  23.349  41.128  0.00  0.00    +0.000 OA
ENDROOT
TORSDOF 0
REMARK  Name = ../refined-set-2016/1a94/1a94_pocket.pdb
REMARK  233 active torsions:
REMARK  status: ('A' for Active; 'I' for Inactive)
REMARK    1  A    between atoms: _1  and  _3
REMARK    2  A    between atoms: _3  and  _4
REMARK    3  A    between atoms: _3  and  _6
REMARK    4  A    between atoms: _6  and  _7
REMARK    5  A    between atoms: _7  and  _8
REMARK    6  A    between atoms: _8  and  _9
REMARK    7  A    between atoms: _18  and  _20
REMARK    8  A    between atoms: _20  and  _21
REMARK    9  A    between atoms: _20  and  _23
REMARK   10  A    between atoms: _23  and  _24
REMARK   11  A    between atoms: _27  and  _29
REMARK   12  A    between atoms: _29  and  _30
REMARK   13  A    between atoms: _29  and  _32
REMARK   14  A    between atoms: _32  and  _33
REMARK   15  A    between atoms: _36  and  _38
REMARK   16  A    between atoms: _38  and  _39
REMARK   17  A    between atoms: _38  and  _41
REMARK   18  A    between atoms: _41  and  _42
REMARK   19  A    between atoms: _45  and  _47
REMARK   20  A    between atoms: _47  and  _48
REMARK   21  A    between atoms: _47  and  _50
REMARK   22  A    between atoms: _50  and  _51
REMARK   23  A    between atoms: _54  and  _56
REMARK   24  A    between atoms: _56  and  _57
REMARK   25  A    between atoms: _59  and  _61
REMARK   26  A    between atoms: _61  and  _62
REMARK   27  A    between atoms: _65  and  _67
REMARK   28  A    between atoms: _67  and  _68
REMARK   29  A    between atoms: _67  and  _70
REMARK   30  A    between atoms: _70  and  _71
REMARK   31  A    between atoms: _74  and  _76
REMARK   32  A    between atoms: _76  and  _77
REMARK   33  A    between atoms: _76  and  _79
REMARK   34  A    between atoms: _79  and  _80
REMARK   35  A    between atoms: _83  and  _85
REMARK   36  A    between atoms: _85  and  _86
REMARK   37  A    between atoms: _85  and  _88
REMARK   38  A    between atoms: _88  and  _89
REMARK   39  A    between atoms: _92  and  _94
REMARK   40  A    between atoms: _94  and  _95
REMARK   41  A    between atoms: _94  and  _97
REMARK   42  A    between atoms: _100  and  _102
REMARK   43  A    between atoms: _102  and  _103
REMARK   44  A    between atoms: _102  and  _105
REMARK   45  A    between atoms: _105  and  _106
REMARK   46  A    between atoms: _106  and  _107
REMARK   47  A    between atoms: _107  and  _108
REMARK   48  A    between atoms: _108  and  _109
REMARK   49  A    between atoms: _113  and  _115
REMARK   50  A    between atoms: _115  and  _116
REMARK   51  A    between atoms: _115  and  _118
REMARK   52  A    between atoms: _118  and  _119
REMARK   53  A    between atoms: _119  and  _120
REMARK   54  A    between atoms: _122  and  _124
REMARK   55  A    between atoms: _124  and  _125
REMARK   56  A    between atoms: _124  and  _127
REMARK   57  A    between atoms: _127  and  _128
REMARK   58  A    between atoms: _131  and  _133
REMARK   59  A    between atoms: _133  and  _134
REMARK   60  A    between atoms: _136  and  _138
REMARK   61  A    between atoms: _138  and  _139
REMARK   62  A    between atoms: _141  and  _143
REMARK   63  A    between atoms: _143  and  _144
REMARK   64  A    between atoms: _143  and  _146
REMARK   65  A    between atoms: _146  and  _147
REMARK   66  A    between atoms: _150  and  _152
REMARK   67  A    between atoms: _152  and  _153
REMARK   68  A    between atoms: _155  and  _157
REMARK   69  A    between atoms: _157  and  _158
REMARK   70  A    between atoms: _160  and  _162
REMARK   71  A    between atoms: _162  and  _163
REMARK   72  A    between atoms: _162  and  _165
REMARK   73  A    between atoms: _165  and  _166
REMARK   74  A    between atoms: _172  and  _174
REMARK   75  A    between atoms: _174  and  _175
REMARK   76  A    between atoms: _174  and  _177
REMARK   77  A    between atoms: _177  and  _178
REMARK   78  A    between atoms: _181  and  _183
REMARK   79  A    between atoms: _183  and  _184
REMARK   80  A    between atoms: _183  and  _186
REMARK   81  A    between atoms: _189  and  _191
REMARK   82  A    between atoms: _191  and  _192
REMARK   83  A    between atoms: _191  and  _194
REMARK   84  A    between atoms: _194  and  _195
REMARK   85  A    between atoms: _195  and  _196
REMARK   86  A    between atoms: _201  and  _203
REMARK   87  A    between atoms: _203  and  _204
REMARK   88  A    between atoms: _203  and  _206
REMARK   89  A    between atoms: _206  and  _207
REMARK   90  A    between atoms: _210  and  _212
REMARK   91  A    between atoms: _212  and  _213
REMARK   92  A    between atoms: _212  and  _215
REMARK   93  A    between atoms: _215  and  _216
REMARK   94  A    between atoms: _219  and  _221
REMARK   95  A    between atoms: _221  and  _222
REMARK   96  A    between atoms: _221  and  _224
REMARK   97  A    between atoms: _224  and  _225
REMARK   98  A    between atoms: _229  and  _230
REMARK   99  A    between atoms: _235  and  _237
REMARK  100  A    between atoms: _237  and  _238
REMARK  101  A    between atoms: _237  and  _240
REMARK  102  A    between atoms: _243  and  _245
REMARK  103  A    between atoms: _245  and  _246
REMARK  104  A    between atoms: _245  and  _248
REMARK  105  A    between atoms: _248  and  _249
REMARK  106  A    between atoms: _254  and  _256
REMARK  107  A    between atoms: _256  and  _257
REMARK  108  A    between atoms: _256  and  _259
REMARK  109  A    between atoms: _259  and  _260
REMARK  110  A    between atoms: _263  and  _265
REMARK  111  A    between atoms: _265  and  _266
REMARK  112  A    between atoms: _265  and  _268
REMARK  113  A    between atoms: _268  and  _269
REMARK  114  A    between atoms: _272  and  _274
REMARK  115  A    between atoms: _274  and  _275
REMARK  116  A    between atoms: _277  and  _279
REMARK  117  A    between atoms: _279  and  _280
REMARK  118  A    between atoms: _279  and  _282
REMARK  119  A    between atoms: _282  and  _283
REMARK  120  A    between atoms: _283  and  _284
REMARK  121  A    between atoms: _284  and  _285
REMARK  122  A    between atoms: _294  and  _296
REMARK  123  A    between atoms: _296  and  _297
REMARK  124  A    between atoms: _296  and  _299
REMARK  125  A    between atoms: _299  and  _300
REMARK  126  A    between atoms: _305  and  _307
REMARK  127  A    between atoms: _307  and  _308
REMARK  128  A    between atoms: _307  and  _310
REMARK  129  A    between atoms: _310  and  _311
REMARK  130  A    between atoms: _311  and  _312
REMARK  131  A    between atoms: _312  and  _313
REMARK  132  A    between atoms: _322  and  _324
REMARK  133  A    between atoms: _324  and  _325
REMARK  134  A    between atoms: _324  and  _327
REMARK  135  A    between atoms: _327  and  _328
REMARK  136  A    between atoms: _331  and  _333
REMARK  137  A    between atoms: _333  and  _334
REMARK  138  A    between atoms: _333  and  _336
REMARK  139  A    between atoms: _336  and  _337
REMARK  140  A    between atoms: _340  and  _342
REMARK  141  A    between atoms: _342  and  _343
REMARK  142  A    between atoms: _342  and  _345
REMARK  143  A    between atoms: _345  and  _346
REMARK  144  A    between atoms: _349  and  _351
REMARK  145  A    between atoms: _351  and  _352
REMARK  146  A    between atoms: _354  and  _356
REMARK  147  A    between atoms: _356  and  _357
REMARK  148  A    between atoms: _360  and  _362
REMARK  149  A    between atoms: _362  and  _363
REMARK  150  A    between atoms: _362  and  _365
REMARK  151  A    between atoms: _365  and  _366
REMARK  152  A    between atoms: _369  and  _371
REMARK  153  A    between atoms: _371  and  _372
REMARK  154  A    between atoms: _371  and  _374
REMARK  155  A    between atoms: _374  and  _375
REMARK  156  A    between atoms: _378  and  _380
REMARK  157  A    between atoms: _380  and  _381
REMARK  158  A    between atoms: _380  and  _383
REMARK  159  A    between atoms: _383  and  _384
REMARK  160  A    between atoms: _387  and  _389
REMARK  161  A    between atoms: _389  and  _390
REMARK  162  A    between atoms: _389  and  _392
REMARK  163  A    between atoms: _395  and  _397
REMARK  164  A    between atoms: _397  and  _398
REMARK  165  A    between atoms: _397  and  _400
REMARK  166  A    between atoms: _400  and  _401
REMARK  167  A    between atoms: _401  and  _402
REMARK  168  A    between atoms: _402  and  _403
REMARK  169  A    between atoms: _403  and  _404
REMARK  170  A    between atoms: _408  and  _410
REMARK  171  A    between atoms: _410  and  _411
REMARK  172  A    between atoms: _410  and  _413
REMARK  173  A    between atoms: _413  and  _414
REMARK  174  A    between atoms: _414  and  _415
REMARK  175  A    between atoms: _417  and  _419
REMARK  176  A    between atoms: _419  and  _420
REMARK  177  A    between atoms: _419  and  _422
REMARK  178  A    between atoms: _422  and  _423
REMARK  179  A    between atoms: _426  and  _428
REMARK  180  A    between atoms: _428  and  _429
REMARK  181  A    between atoms: _431  and  _433
REMARK  182  A    between atoms: _433  and  _434
REMARK  183  A    between atoms: _436  and  _438
REMARK  184  A    between atoms: _438  and  _439
REMARK  185  A    between atoms: _438  and  _441
REMARK  186  A    between atoms: _441  and  _442
REMARK  187  A    between atoms: _445  and  _447
REMARK  188  A    between atoms: _447  and  _448
REMARK  189  A    between atoms: _450  and  _452
REMARK  190  A    between atoms: _452  and  _453
REMARK  191  A    between atoms: _455  and  _457
REMARK  192  A    between atoms: _457  and  _458
REMARK  193  A    between atoms: _457  and  _460
REMARK  194  A    between atoms: _460  and  _461
REMARK  195  A    between atoms: _467  and  _469
REMARK  196  A    between atoms: _469  and  _470
REMARK  197  A    between atoms: _469  and  _472
REMARK  198  A    between atoms: _472  and  _473
REMARK  199  A    between atoms: _476  and  _478
REMARK  200  A    between atoms: _478  and  _479
REMARK  201  A    between atoms: _478  and  _481
REMARK  202  A    between atoms: _484  and  _486
REMARK  203  A    between atoms: _486  and  _487
REMARK  204  A    between atoms: _486  and  _489
REMARK  205  A    between atoms: _489  and  _490
REMARK  206  A    between atoms: _493  and  _495
REMARK  207  A    between atoms: _495  and  _496
REMARK  208  A    between atoms: _495  and  _498
REMARK  209  A    between atoms: _498  and  _499
REMARK  210  A    between atoms: _503  and  _504
REMARK  211  A    between atoms: _509  and  _511
REMARK  212  A    between atoms: _511  and  _512
REMARK  213  A    between atoms: _511  and  _514
REMARK  214  A    between atoms: _517  and  _519
REMARK  215  A    between atoms: _519  and  _520
REMARK  216  A    between atoms: _519  and  _522
REMARK  217  A    between atoms: _522  and  _523
REMARK  218  A    between atoms: _528  and  _530
REMARK  219  A    between atoms: _530  and  _531
REMARK  220  A    between atoms: _530  and  _533
REMARK  221  A    between atoms: _533  and  _534
REMARK  222  A    between atoms: _537  and  _539
REMARK  223  A    between atoms: _539  and  _540
REMARK  224  A    between atoms: _539  and  _542
REMARK  225  A    between atoms: _542  and  _543
REMARK  226  A    between atoms: _546  and  _548
REMARK  227  A    between atoms: _548  and  _549
REMARK  228  A    between atoms: _551  and  _553
REMARK  229  A    between atoms: _553  and  _554
REMARK  230  A    between atoms: _553  and  _556
REMARK  231  A    between atoms: _556  and  _557
REMARK  232  A    between atoms: _557  and  _558
REMARK  233  A    between atoms: _558  and  _559
REMARK                            x       y       z     vdW  Elec       q    Type
REMARK                         _______ _______ _______ _____ _____    ______ ____
ROOT
ATOM      1  O   HOH     1      69.905  23.650  35.669  0.00  0.00    +0.000 OA
ENDROOT
TORSDOF 0
REMARK  Name = ../refined-set-2016/1a94/1a94_pocket.pdb
REMARK  233 active torsions:
REMARK  status: ('A' for Active; 'I' for Inactive)
REMARK    1  A    between atoms: _1  and  _3
REMARK    2  A    between atoms: _3  and  _4
REMARK    3  A    between atoms: _3  and  _6
REMARK    4  A    between atoms: _6  and  _7
REMARK    5  A    between atoms: _7  and  _8
REMARK    6  A    between atoms: _8  and  _9
REMARK    7  A    between atoms: _18  and  _20
REMARK    8  A    between atoms: _20  and  _21
REMARK    9  A    between atoms: _20  and  _23
REMARK   10  A    between atoms: _23  and  _24
REMARK   11  A    between atoms: _27  and  _29
REMARK   12  A    between atoms: _29  and  _30
REMARK   13  A    between atoms: _29  and  _32
REMARK   14  A    between atoms: _32  and  _33
REMARK   15  A    between atoms: _36  and  _38
REMARK   16  A    between atoms: _38  and  _39
REMARK   17  A    between atoms: _38  and  _41
REMARK   18  A    between atoms: _41  and  _42
REMARK   19  A    between atoms: _45  and  _47
REMARK   20  A    between atoms: _47  and  _48
REMARK   21  A    between atoms: _47  and  _50
REMARK   22  A    between atoms: _50  and  _51
REMARK   23  A    between atoms: _54  and  _56
REMARK   24  A    between atoms: _56  and  _57
REMARK   25  A    between atoms: _59  and  _61
REMARK   26  A    between atoms: _61  and  _62
REMARK   27  A    between atoms: _65  and  _67
REMARK   28  A    between atoms: _67  and  _68
REMARK   29  A    between atoms: _67  and  _70
REMARK   30  A    between atoms: _70  and  _71
REMARK   31  A    between atoms: _74  and  _76
REMARK   32  A    between atoms: _76  and  _77
REMARK   33  A    between atoms: _76  and  _79
REMARK   34  A    between atoms: _79  and  _80
REMARK   35  A    between atoms: _83  and  _85
REMARK   36  A    between atoms: _85  and  _86
REMARK   37  A    between atoms: _85  and  _88
REMARK   38  A    between atoms: _88  and  _89
REMARK   39  A    between atoms: _92  and  _94
REMARK   40  A    between atoms: _94  and  _95
REMARK   41  A    between atoms: _94  and  _97
REMARK   42  A    between atoms: _100  and  _102
REMARK   43  A    between atoms: _102  and  _103
REMARK   44  A    between atoms: _102  and  _105
REMARK   45  A    between atoms: _105  and  _106
REMARK   46  A    between atoms: _106  and  _107
REMARK   47  A    between atoms: _107  and  _108
REMARK   48  A    between atoms: _108  and  _109
REMARK   49  A    between atoms: _113  and  _115
REMARK   50  A    between atoms: _115  and  _116
REMARK   51  A    between atoms: _115  and  _118
REMARK   52  A    between atoms: _118  and  _119
REMARK   53  A    between atoms: _119  and  _120
REMARK   54  A    between atoms: _122  and  _124
REMARK   55  A    between atoms: _124  and  _125
REMARK   56  A    between atoms: _124  and  _127
REMARK   57  A    between atoms: _127  and  _128
REMARK   58  A    between atoms: _131  and  _133
REMARK   59  A    between atoms: _133  and  _134
REMARK   60  A    between atoms: _136  and  _138
REMARK   61  A    between atoms: _138  and  _139
REMARK   62  A    between atoms: _141  and  _143
REMARK   63  A    between atoms: _143  and  _144
REMARK   64  A    between atoms: _143  and  _146
REMARK   65  A    between atoms: _146  and  _147
REMARK   66  A    between atoms: _150  and  _152
REMARK   67  A    between atoms: _152  and  _153
REMARK   68  A    between atoms: _155  and  _157
REMARK   69  A    between atoms: _157  and  _158
REMARK   70  A    between atoms: _160  and  _162
REMARK   71  A    between atoms: _162  and  _163
REMARK   72  A    between atoms: _162  and  _165
REMARK   73  A    between atoms: _165  and  _166
REMARK   74  A    between atoms: _172  and  _174
REMARK   75  A    between atoms: _174  and  _175
REMARK   76  A    between atoms: _174  and  _177
REMARK   77  A    between atoms: _177  and  _178
REMARK   78  A    between atoms: _181  and  _183
REMARK   79  A    between atoms: _183  and  _184
REMARK   80  A    between atoms: _183  and  _186
REMARK   81  A    between atoms: _189  and  _191
REMARK   82  A    between atoms: _191  and  _192
REMARK   83  A    between atoms: _191  and  _194
REMARK   84  A    between atoms: _194  and  _195
REMARK   85  A    between atoms: _195  and  _196
REMARK   86  A    between atoms: _201  and  _203
REMARK   87  A    between atoms: _203  and  _204
REMARK   88  A    between atoms: _203  and  _206
REMARK   89  A    between atoms: _206  and  _207
REMARK   90  A    between atoms: _210  and  _212
REMARK   91  A    between atoms: _212  and  _213
REMARK   92  A    between atoms: _212  and  _215
REMARK   93  A    between atoms: _215  and  _216
REMARK   94  A    between atoms: _219  and  _221
REMARK   95  A    between atoms: _221  and  _222
REMARK   96  A    between atoms: _221  and  _224
REMARK   97  A    between atoms: _224  and  _225
REMARK   98  A    between atoms: _229  and  _230
REMARK   99  A    between atoms: _235  and  _237
REMARK  100  A    between atoms: _237  and  _238
REMARK  101  A    between atoms: _237  and  _240
REMARK  102  A    between atoms: _243  and  _245
REMARK  103  A    between atoms: _245  and  _246
REMARK  104  A    between atoms: _245  and  _248
REMARK  105  A    between atoms: _248  and  _249
REMARK  106  A    between atoms: _254  and  _256
REMARK  107  A    between atoms: _256  and  _257
REMARK  108  A    between atoms: _256  and  _259
REMARK  109  A    between atoms: _259  and  _260
REMARK  110  A    between atoms: _263  and  _265
REMARK  111  A    between atoms: _265  and  _266
REMARK  112  A    between atoms: _265  and  _268
REMARK  113  A    between atoms: _268  and  _269
REMARK  114  A    between atoms: _272  and  _274
REMARK  115  A    between atoms: _274  and  _275
REMARK  116  A    between atoms: _277  and  _279
REMARK  117  A    between atoms: _279  and  _280
REMARK  118  A    between atoms: _279  and  _282
REMARK  119  A    between atoms: _282  and  _283
REMARK  120  A    between atoms: _283  and  _284
REMARK  121  A    between atoms: _284  and  _285
REMARK  122  A    between atoms: _294  and  _296
REMARK  123  A    between atoms: _296  and  _297
REMARK  124  A    between atoms: _296  and  _299
REMARK  125  A    between atoms: _299  and  _300
REMARK  126  A    between atoms: _305  and  _307
REMARK  127  A    between atoms: _307  and  _308
REMARK  128  A    between atoms: _307  and  _310
REMARK  129  A    between atoms: _310  and  _311
REMARK  130  A    between atoms: _311  and  _312
REMARK  131  A    between atoms: _312  and  _313
REMARK  132  A    between atoms: _322  and  _324
REMARK  133  A    between atoms: _324  and  _325
REMARK  134  A    between atoms: _324  and  _327
REMARK  135  A    between atoms: _327  and  _328
REMARK  136  A    between atoms: _331  and  _333
REMARK  137  A    between atoms: _333  and  _334
REMARK  138  A    between atoms: _333  and  _336
REMARK  139  A    between atoms: _336  and  _337
REMARK  140  A    between atoms: _340  and  _342
REMARK  141  A    between atoms: _342  and  _343
REMARK  142  A    between atoms: _342  and  _345
REMARK  143  A    between atoms: _345  and  _346
REMARK  144  A    between atoms: _349  and  _351
REMARK  145  A    between atoms: _351  and  _352
REMARK  146  A    between atoms: _354  and  _356
REMARK  147  A    between atoms: _356  and  _357
REMARK  148  A    between atoms: _360  and  _362
REMARK  149  A    between atoms: _362  and  _363
REMARK  150  A    between atoms: _362  and  _365
REMARK  151  A    between atoms: _365  and  _366
REMARK  152  A    between atoms: _369  and  _371
REMARK  153  A    between atoms: _371  and  _372
REMARK  154  A    between atoms: _371  and  _374
REMARK  155  A    between atoms: _374  and  _375
REMARK  156  A    between atoms: _378  and  _380
REMARK  157  A    between atoms: _380  and  _381
REMARK  158  A    between atoms: _380  and  _383
REMARK  159  A    between atoms: _383  and  _384
REMARK  160  A    between atoms: _387  and  _389
REMARK  161  A    between atoms: _389  and  _390
REMARK  162  A    between atoms: _389  and  _392
REMARK  163  A    between atoms: _395  and  _397
REMARK  164  A    between atoms: _397  and  _398
REMARK  165  A    between atoms: _397  and  _400
REMARK  166  A    between atoms: _400  and  _401
REMARK  167  A    between atoms: _401  and  _402
REMARK  168  A    between atoms: _402  and  _403
REMARK  169  A    between atoms: _403  and  _404
REMARK  170  A    between atoms: _408  and  _410
REMARK  171  A    between atoms: _410  and  _411
REMARK  172  A    between atoms: _410  and  _413
REMARK  173  A    between atoms: _413  and  _414
REMARK  174  A    between atoms: _414  and  _415
REMARK  175  A    between atoms: _417  and  _419
REMARK  176  A    between atoms: _419  and  _420
REMARK  177  A    between atoms: _419  and  _422
REMARK  178  A    between atoms: _422  and  _423
REMARK  179  A    between atoms: _426  and  _428
REMARK  180  A    between atoms: _428  and  _429
REMARK  181  A    between atoms: _431  and  _433
REMARK  182  A    between atoms: _433  and  _434
REMARK  183  A    between atoms: _436  and  _438
REMARK  184  A    between atoms: _438  and  _439
REMARK  185  A    between atoms: _438  and  _441
REMARK  186  A    between atoms: _441  and  _442
REMARK  187  A    between atoms: _445  and  _447
REMARK  188  A    between atoms: _447  and  _448
REMARK  189  A    between atoms: _450  and  _452
REMARK  190  A    between atoms: _452  and  _453
REMARK  191  A    between atoms: _455  and  _457
REMARK  192  A    between atoms: _457  and  _458
REMARK  193  A    between atoms: _457  and  _460
REMARK  194  A    between atoms: _460  and  _461
REMARK  195  A    between atoms: _467  and  _469
REMARK  196  A    between atoms: _469  and  _470
REMARK  197  A    between atoms: _469  and  _472
REMARK  198  A    between atoms: _472  and  _473
REMARK  199  A    between atoms: _476  and  _478
REMARK  200  A    between atoms: _478  and  _479
REMARK  201  A    between atoms: _478  and  _481
REMARK  202  A    between atoms: _484  and  _486
REMARK  203  A    between atoms: _486  and  _487
REMARK  204  A    between atoms: _486  and  _489
REMARK  205  A    between atoms: _489  and  _490
REMARK  206  A    between atoms: _493  and  _495
REMARK  207  A    between atoms: _495  and  _496
REMARK  208  A    between atoms: _495  and  _498
REMARK  209  A    between atoms: _498  and  _499
REMARK  210  A    between atoms: _503  and  _504
REMARK  211  A    between atoms: _509  and  _511
REMARK  212  A    between atoms: _511  and  _512
REMARK  213  A    between atoms: _511  and  _514
REMARK  214  A    between atoms: _517  and  _519
REMARK  215  A    between atoms: _519  and  _520
REMARK  216  A    between atoms: _519  and  _522
REMARK  217  A    between atoms: _522  and  _523
REMARK  218  A    between atoms: _528  and  _530
REMARK  219  A    between atoms: _530  and  _531
REMARK  220  A    between atoms: _530  and  _533
REMARK  221  A    between atoms: _533  and  _534
REMARK  222  A    between atoms: _537  and  _539
REMARK  223  A    between atoms: _539  and  _540
REMARK  224  A    between atoms: _539  and  _542
REMARK  225  A    between atoms: _542  and  _543
REMARK  226  A    between atoms: _546  and  _548
REMARK  227  A    between atoms: _548  and  _549
REMARK  228  A    between atoms: _551  and  _553
REMARK  229  A    between atoms: _553  and  _554
REMARK  230  A    between atoms: _553  and  _556
REMARK  231  A    between atoms: _556  and  _557
REMARK  232  A    between atoms: _557  and  _558
REMARK  233  A    between atoms: _558  and  _559
REMARK                            x       y       z     vdW  Elec       q    Type
REMARK                         _______ _______ _______ _____ _____    ______ ____
ROOT
ATOM      1  O   HOH     1      54.347  17.862  24.978  0.00  0.00    +0.000 OA
ENDROOT
TORSDOF 0
REMARK  Name = ../refined-set-2016/1a94/1a94_pocket.pdb
REMARK  233 active torsions:
REMARK  status: ('A' for Active; 'I' for Inactive)
REMARK    1  A    between atoms: _1  and  _3
REMARK    2  A    between atoms: _3  and  _4
REMARK    3  A    between atoms: _3  and  _6
REMARK    4  A    between atoms: _6  and  _7
REMARK    5  A    between atoms: _7  and  _8
REMARK    6  A    between atoms: _8  and  _9
REMARK    7  A    between atoms: _18  and  _20
REMARK    8  A    between atoms: _20  and  _21
REMARK    9  A    between atoms: _20  and  _23
REMARK   10  A    between atoms: _23  and  _24
REMARK   11  A    between atoms: _27  and  _29
REMARK   12  A    between atoms: _29  and  _30
REMARK   13  A    between atoms: _29  and  _32
REMARK   14  A    between atoms: _32  and  _33
REMARK   15  A    between atoms: _36  and  _38
REMARK   16  A    between atoms: _38  and  _39
REMARK   17  A    between atoms: _38  and  _41
REMARK   18  A    between atoms: _41  and  _42
REMARK   19  A    between atoms: _45  and  _47
REMARK   20  A    between atoms: _47  and  _48
REMARK   21  A    between atoms: _47  and  _50
REMARK   22  A    between atoms: _50  and  _51
REMARK   23  A    between atoms: _54  and  _56
REMARK   24  A    between atoms: _56  and  _57
REMARK   25  A    between atoms: _59  and  _61
REMARK   26  A    between atoms: _61  and  _62
REMARK   27  A    between atoms: _65  and  _67
REMARK   28  A    between atoms: _67  and  _68
REMARK   29  A    between atoms: _67  and  _70
REMARK   30  A    between atoms: _70  and  _71
REMARK   31  A    between atoms: _74  and  _76
REMARK   32  A    between atoms: _76  and  _77
REMARK   33  A    between atoms: _76  and  _79
REMARK   34  A    between atoms: _79  and  _80
REMARK   35  A    between atoms: _83  and  _85
REMARK   36  A    between atoms: _85  and  _86
REMARK   37  A    between atoms: _85  and  _88
REMARK   38  A    between atoms: _88  and  _89
REMARK   39  A    between atoms: _92  and  _94
REMARK   40  A    between atoms: _94  and  _95
REMARK   41  A    between atoms: _94  and  _97
REMARK   42  A    between atoms: _100  and  _102
REMARK   43  A    between atoms: _102  and  _103
REMARK   44  A    between atoms: _102  and  _105
REMARK   45  A    between atoms: _105  and  _106
REMARK   46  A    between atoms: _106  and  _107
REMARK   47  A    between atoms: _107  and  _108
REMARK   48  A    between atoms: _108  and  _109
REMARK   49  A    between atoms: _113  and  _115
REMARK   50  A    between atoms: _115  and  _116
REMARK   51  A    between atoms: _115  and  _118
REMARK   52  A    between atoms: _118  and  _119
REMARK   53  A    between atoms: _119  and  _120
REMARK   54  A    between atoms: _122  and  _124
REMARK   55  A    between atoms: _124  and  _125
REMARK   56  A    between atoms: _124  and  _127
REMARK   57  A    between atoms: _127  and  _128
REMARK   58  A    between atoms: _131  and  _133
REMARK   59  A    between atoms: _133  and  _134
REMARK   60  A    between atoms: _136  and  _138
REMARK   61  A    between atoms: _138  and  _139
REMARK   62  A    between atoms: _141  and  _143
REMARK   63  A    between atoms: _143  and  _144
REMARK   64  A    between atoms: _143  and  _146
REMARK   65  A    between atoms: _146  and  _147
REMARK   66  A    between atoms: _150  and  _152
REMARK   67  A    between atoms: _152  and  _153
REMARK   68  A    between atoms: _155  and  _157
REMARK   69  A    between atoms: _157  and  _158
REMARK   70  A    between atoms: _160  and  _162
REMARK   71  A    between atoms: _162  and  _163
REMARK   72  A    between atoms: _162  and  _165
REMARK   73  A    between atoms: _165  and  _166
REMARK   74  A    between atoms: _172  and  _174
REMARK   75  A    between atoms: _174  and  _175
REMARK   76  A    between atoms: _174  and  _177
REMARK   77  A    between atoms: _177  and  _178
REMARK   78  A    between atoms: _181  and  _183
REMARK   79  A    between atoms: _183  and  _184
REMARK   80  A    between atoms: _183  and  _186
REMARK   81  A    between atoms: _189  and  _191
REMARK   82  A    between atoms: _191  and  _192
REMARK   83  A    between atoms: _191  and  _194
REMARK   84  A    between atoms: _194  and  _195
REMARK   85  A    between atoms: _195  and  _196
REMARK   86  A    between atoms: _201  and  _203
REMARK   87  A    between atoms: _203  and  _204
REMARK   88  A    between atoms: _203  and  _206
REMARK   89  A    between atoms: _206  and  _207
REMARK   90  A    between atoms: _210  and  _212
REMARK   91  A    between atoms: _212  and  _213
REMARK   92  A    between atoms: _212  and  _215
REMARK   93  A    between atoms: _215  and  _216
REMARK   94  A    between atoms: _219  and  _221
REMARK   95  A    between atoms: _221  and  _222
REMARK   96  A    between atoms: _221  and  _224
REMARK   97  A    between atoms: _224  and  _225
REMARK   98  A    between atoms: _229  and  _230
REMARK   99  A    between atoms: _235  and  _237
REMARK  100  A    between atoms: _237  and  _238
REMARK  101  A    between atoms: _237  and  _240
REMARK  102  A    between atoms: _243  and  _245
REMARK  103  A    between atoms: _245  and  _246
REMARK  104  A    between atoms: _245  and  _248
REMARK  105  A    between atoms: _248  and  _249
REMARK  106  A    between atoms: _254  and  _256
REMARK  107  A    between atoms: _256  and  _257
REMARK  108  A    between atoms: _256  and  _259
REMARK  109  A    between atoms: _259  and  _260
REMARK  110  A    between atoms: _263  and  _265
REMARK  111  A    between atoms: _265  and  _266
REMARK  112  A    between atoms: _265  and  _268
REMARK  113  A    between atoms: _268  and  _269
REMARK  114  A    between atoms: _272  and  _274
REMARK  115  A    between atoms: _274  and  _275
REMARK  116  A    between atoms: _277  and  _279
REMARK  117  A    between atoms: _279  and  _280
REMARK  118  A    between atoms: _279  and  _282
REMARK  119  A    between atoms: _282  and  _283
REMARK  120  A    between atoms: _283  and  _284
REMARK  121  A    between atoms: _284  and  _285
REMARK  122  A    between atoms: _294  and  _296
REMARK  123  A    between atoms: _296  and  _297
REMARK  124  A    between atoms: _296  and  _299
REMARK  125  A    between atoms: _299  and  _300
REMARK  126  A    between atoms: _305  and  _307
REMARK  127  A    between atoms: _307  and  _308
REMARK  128  A    between atoms: _307  and  _310
REMARK  129  A    between atoms: _310  and  _311
REMARK  130  A    between atoms: _311  and  _312
REMARK  131  A    between atoms: _312  and  _313
REMARK  132  A    between atoms: _322  and  _324
REMARK  133  A    between atoms: _324  and  _325
REMARK  134  A    between atoms: _324  and  _327
REMARK  135  A    between atoms: _327  and  _328
REMARK  136  A    between atoms: _331  and  _333
REMARK  137  A    between atoms: _333  and  _334
REMARK  138  A    between atoms: _333  and  _336
REMARK  139  A    between atoms: _336  and  _337
REMARK  140  A    between atoms: _340  and  _342
REMARK  141  A    between atoms: _342  and  _343
REMARK  142  A    between atoms: _342  and  _345
REMARK  143  A    between atoms: _345  and  _346
REMARK  144  A    between atoms: _349  and  _351
REMARK  145  A    between atoms: _351  and  _352
REMARK  146  A    between atoms: _354  and  _356
REMARK  147  A    between atoms: _356  and  _357
REMARK  148  A    between atoms: _360  and  _362
REMARK  149  A    between atoms: _362  and  _363
REMARK  150  A    between atoms: _362  and  _365
REMARK  151  A    between atoms: _365  and  _366
REMARK  152  A    between atoms: _369  and  _371
REMARK  153  A    between atoms: _371  and  _372
REMARK  154  A    between atoms: _371  and  _374
REMARK  155  A    between atoms: _374  and  _375
REMARK  156  A    between atoms: _378  and  _380
REMARK  157  A    between atoms: _380  and  _381
REMARK  158  A    between atoms: _380  and  _383
REMARK  159  A    between atoms: _383  and  _384
REMARK  160  A    between atoms: _387  and  _389
REMARK  161  A    between atoms: _389  and  _390
REMARK  162  A    between atoms: _389  and  _392
REMARK  163  A    between atoms: _395  and  _397
REMARK  164  A    between atoms: _397  and  _398
REMARK  165  A    between atoms: _397  and  _400
REMARK  166  A    between atoms: _400  and  _401
REMARK  167  A    between atoms: _401  and  _402
REMARK  168  A    between atoms: _402  and  _403
REMARK  169  A    between atoms: _403  and  _404
REMARK  170  A    between atoms: _408  and  _410
REMARK  171  A    between atoms: _410  and  _411
REMARK  172  A    between atoms: _410  and  _413
REMARK  173  A    between atoms: _413  and  _414
REMARK  174  A    between atoms: _414  and  _415
REMARK  175  A    between atoms: _417  and  _419
REMARK  176  A    between atoms: _419  and  _420
REMARK  177  A    between atoms: _419  and  _422
REMARK  178  A    between atoms: _422  and  _423
REMARK  179  A    between atoms: _426  and  _428
REMARK  180  A    between atoms: _428  and  _429
REMARK  181  A    between atoms: _431  and  _433
REMARK  182  A    between atoms: _433  and  _434
REMARK  183  A    between atoms: _436  and  _438
REMARK  184  A    between atoms: _438  and  _439
REMARK  185  A    between atoms: _438  and  _441
REMARK  186  A    between atoms: _441  and  _442
REMARK  187  A    between atoms: _445  and  _447
REMARK  188  A    between atoms: _447  and  _448
REMARK  189  A    between atoms: _450  and  _452
REMARK  190  A    between atoms: _452  and  _453
REMARK  191  A    between atoms: _455  and  _457
REMARK  192  A    between atoms: _457  and  _458
REMARK  193  A    between atoms: _457  and  _460
REMARK  194  A    between atoms: _460  and  _461
REMARK  195  A    between atoms: _467  and  _469
REMARK  196  A    between atoms: _469  and  _470
REMARK  197  A    between atoms: _469  and  _472
REMARK  198  A    between atoms: _472  and  _473
REMARK  199  A    between atoms: _476  and  _478
REMARK  200  A    between atoms: _478  and  _479
REMARK  201  A    between atoms: _478  and  _481
REMARK  202  A    between atoms: _484  and  _486
REMARK  203  A    between atoms: _486  and  _487
REMARK  204  A    between atoms: _486  and  _489
REMARK  205  A    between atoms: _489  and  _490
REMARK  206  A    between atoms: _493  and  _495
REMARK  207  A    between atoms: _495  and  _496
REMARK  208  A    between atoms: _495  and  _498
REMARK  209  A    between atoms: _498  and  _499
REMARK  210  A    between atoms: _503  and  _504
REMARK  211  A    between atoms: _509  and  _511
REMARK  212  A    between atoms: _511  and  _512
REMARK  213  A    between atoms: _511  and  _514
REMARK  214  A    between atoms: _517  and  _519
REMARK  215  A    between atoms: _519  and  _520
REMARK  216  A    between atoms: _519  and  _522
REMARK  217  A    between atoms: _522  and  _523
REMARK  218  A    between atoms: _528  and  _530
REMARK  219  A    between atoms: _530  and  _531
REMARK  220  A    between atoms: _530  and  _533
REMARK  221  A    between atoms: _533  and  _534
REMARK  222  A    between atoms: _537  and  _539
REMARK  223  A    between atoms: _539  and  _540
REMARK  224  A    between atoms: _539  and  _542
REMARK  225  A    between atoms: _542  and  _543
REMARK  226  A    between atoms: _546  and  _548
REMARK  227  A    between atoms: _548  and  _549
REMARK  228  A    between atoms: _551  and  _553
REMARK  229  A    between atoms: _553  and  _554
REMARK  230  A    between atoms: _553  and  _556
REMARK  231  A    between atoms: _556  and  _557
REMARK  232  A    between atoms: _557  and  _558
REMARK  233  A    between atoms: _558  and  _559
REMARK                            x       y       z     vdW  Elec       q    Type
REMARK                         _______ _______ _______ _____ _____    ______ ____
ROOT
ATOM      1  O   HOH     1      58.915  21.894  41.364  0.00  0.00    +0.000 OA
ENDROOT
TORSDOF 0
REMARK  Name = ../refined-set-2016/1a94/1a94_pocket.pdb
REMARK  233 active torsions:
REMARK  status: ('A' for Active; 'I' for Inactive)
REMARK    1  A    between atoms: _1  and  _3
REMARK    2  A    between atoms: _3  and  _4
REMARK    3  A    between atoms: _3  and  _6
REMARK    4  A    between atoms: _6  and  _7
REMARK    5  A    between atoms: _7  and  _8
REMARK    6  A    between atoms: _8  and  _9
REMARK    7  A    between atoms: _18  and  _20
REMARK    8  A    between atoms: _20  and  _21
REMARK    9  A    between atoms: _20  and  _23
REMARK   10  A    between atoms: _23  and  _24
REMARK   11  A    between atoms: _27  and  _29
REMARK   12  A    between atoms: _29  and  _30
REMARK   13  A    between atoms: _29  and  _32
REMARK   14  A    between atoms: _32  and  _33
REMARK   15  A    between atoms: _36  and  _38
REMARK   16  A    between atoms: _38  and  _39
REMARK   17  A    between atoms: _38  and  _41
REMARK   18  A    between atoms: _41  and  _42
REMARK   19  A    between atoms: _45  and  _47
REMARK   20  A    between atoms: _47  and  _48
REMARK   21  A    between atoms: _47  and  _50
REMARK   22  A    between atoms: _50  and  _51
REMARK   23  A    between atoms: _54  and  _56
REMARK   24  A    between atoms: _56  and  _57
REMARK   25  A    between atoms: _59  and  _61
REMARK   26  A    between atoms: _61  and  _62
REMARK   27  A    between atoms: _65  and  _67
REMARK   28  A    between atoms: _67  and  _68
REMARK   29  A    between atoms: _67  and  _70
REMARK   30  A    between atoms: _70  and  _71
REMARK   31  A    between atoms: _74  and  _76
REMARK   32  A    between atoms: _76  and  _77
REMARK   33  A    between atoms: _76  and  _79
REMARK   34  A    between atoms: _79  and  _80
REMARK   35  A    between atoms: _83  and  _85
REMARK   36  A    between atoms: _85  and  _86
REMARK   37  A    between atoms: _85  and  _88
REMARK   38  A    between atoms: _88  and  _89
REMARK   39  A    between atoms: _92  and  _94
REMARK   40  A    between atoms: _94  and  _95
REMARK   41  A    between atoms: _94  and  _97
REMARK   42  A    between atoms: _100  and  _102
REMARK   43  A    between atoms: _102  and  _103
REMARK   44  A    between atoms: _102  and  _105
REMARK   45  A    between atoms: _105  and  _106
REMARK   46  A    between atoms: _106  and  _107
REMARK   47  A    between atoms: _107  and  _108
REMARK   48  A    between atoms: _108  and  _109
REMARK   49  A    between atoms: _113  and  _115
REMARK   50  A    between atoms: _115  and  _116
REMARK   51  A    between atoms: _115  and  _118
REMARK   52  A    between atoms: _118  and  _119
REMARK   53  A    between atoms: _119  and  _120
REMARK   54  A    between atoms: _122  and  _124
REMARK   55  A    between atoms: _124  and  _125
REMARK   56  A    between atoms: _124  and  _127
REMARK   57  A    between atoms: _127  and  _128
REMARK   58  A    between atoms: _131  and  _133
REMARK   59  A    between atoms: _133  and  _134
REMARK   60  A    between atoms: _136  and  _138
REMARK   61  A    between atoms: _138  and  _139
REMARK   62  A    between atoms: _141  and  _143
REMARK   63  A    between atoms: _143  and  _144
REMARK   64  A    between atoms: _143  and  _146
REMARK   65  A    between atoms: _146  and  _147
REMARK   66  A    between atoms: _150  and  _152
REMARK   67  A    between atoms: _152  and  _153
REMARK   68  A    between atoms: _155  and  _157
REMARK   69  A    between atoms: _157  and  _158
REMARK   70  A    between atoms: _160  and  _162
REMARK   71  A    between atoms: _162  and  _163
REMARK   72  A    between atoms: _162  and  _165
REMARK   73  A    between atoms: _165  and  _166
REMARK   74  A    between atoms: _172  and  _174
REMARK   75  A    between atoms: _174  and  _175
REMARK   76  A    between atoms: _174  and  _177
REMARK   77  A    between atoms: _177  and  _178
REMARK   78  A    between atoms: _181  and  _183
REMARK   79  A    between atoms: _183  and  _184
REMARK   80  A    between atoms: _183  and  _186
REMARK   81  A    between atoms: _189  and  _191
REMARK   82  A    between atoms: _191  and  _192
REMARK   83  A    between atoms: _191  and  _194
REMARK   84  A    between atoms: _194  and  _195
REMARK   85  A    between atoms: _195  and  _196
REMARK   86  A    between atoms: _201  and  _203
REMARK   87  A    between atoms: _203  and  _204
REMARK   88  A    between atoms: _203  and  _206
REMARK   89  A    between atoms: _206  and  _207
REMARK   90  A    between atoms: _210  and  _212
REMARK   91  A    between atoms: _212  and  _213
REMARK   92  A    between atoms: _212  and  _215
REMARK   93  A    between atoms: _215  and  _216
REMARK   94  A    between atoms: _219  and  _221
REMARK   95  A    between atoms: _221  and  _222
REMARK   96  A    between atoms: _221  and  _224
REMARK   97  A    between atoms: _224  and  _225
REMARK   98  A    between atoms: _229  and  _230
REMARK   99  A    between atoms: _235  and  _237
REMARK  100  A    between atoms: _237  and  _238
REMARK  101  A    between atoms: _237  and  _240
REMARK  102  A    between atoms: _243  and  _245
REMARK  103  A    between atoms: _245  and  _246
REMARK  104  A    between atoms: _245  and  _248
REMARK  105  A    between atoms: _248  and  _249
REMARK  106  A    between atoms: _254  and  _256
REMARK  107  A    between atoms: _256  and  _257
REMARK  108  A    between atoms: _256  and  _259
REMARK  109  A    between atoms: _259  and  _260
REMARK  110  A    between atoms: _263  and  _265
REMARK  111  A    between atoms: _265  and  _266
REMARK  112  A    between atoms: _265  and  _268
REMARK  113  A    between atoms: _268  and  _269
REMARK  114  A    between atoms: _272  and  _274
REMARK  115  A    between atoms: _274  and  _275
REMARK  116  A    between atoms: _277  and  _279
REMARK  117  A    between atoms: _279  and  _280
REMARK  118  A    between atoms: _279  and  _282
REMARK  119  A    between atoms: _282  and  _283
REMARK  120  A    between atoms: _283  and  _284
REMARK  121  A    between atoms: _284  and  _285
REMARK  122  A    between atoms: _294  and  _296
REMARK  123  A    between atoms: _296  and  _297
REMARK  124  A    between atoms: _296  and  _299
REMARK  125  A    between atoms: _299  and  _300
REMARK  126  A    between atoms: _305  and  _307
REMARK  127  A    between atoms: _307  and  _308
REMARK  128  A    between atoms: _307  and  _310
REMARK  129  A    between atoms: _310  and  _311
REMARK  130  A    between atoms: _311  and  _312
REMARK  131  A    between atoms: _312  and  _313
REMARK  132  A    between atoms: _322  and  _324
REMARK  133  A    between atoms: _324  and  _325
REMARK  134  A    between atoms: _324  and  _327
REMARK  135  A    between atoms: _327  and  _328
REMARK  136  A    between atoms: _331  and  _333
REMARK  137  A    between atoms: _333  and  _334
REMARK  138  A    between atoms: _333  and  _336
REMARK  139  A    between atoms: _336  and  _337
REMARK  140  A    between atoms: _340  and  _342
REMARK  141  A    between atoms: _342  and  _343
REMARK  142  A    between atoms: _342  and  _345
REMARK  143  A    between atoms: _345  and  _346
REMARK  144  A    between atoms: _349  and  _351
REMARK  145  A    between atoms: _351  and  _352
REMARK  146  A    between atoms: _354  and  _356
REMARK  147  A    between atoms: _356  and  _357
REMARK  148  A    between atoms: _360  and  _362
REMARK  149  A    between atoms: _362  and  _363
REMARK  150  A    between atoms: _362  and  _365
REMARK  151  A    between atoms: _365  and  _366
REMARK  152  A    between atoms: _369  and  _371
REMARK  153  A    between atoms: _371  and  _372
REMARK  154  A    between atoms: _371  and  _374
REMARK  155  A    between atoms: _374  and  _375
REMARK  156  A    between atoms: _378  and  _380
REMARK  157  A    between atoms: _380  and  _381
REMARK  158  A    between atoms: _380  and  _383
REMARK  159  A    between atoms: _383  and  _384
REMARK  160  A    between atoms: _387  and  _389
REMARK  161  A    between atoms: _389  and  _390
REMARK  162  A    between atoms: _389  and  _392
REMARK  163  A    between atoms: _395  and  _397
REMARK  164  A    between atoms: _397  and  _398
REMARK  165  A    between atoms: _397  and  _400
REMARK  166  A    between atoms: _400  and  _401
REMARK  167  A    between atoms: _401  and  _402
REMARK  168  A    between atoms: _402  and  _403
REMARK  169  A    between atoms: _403  and  _404
REMARK  170  A    between atoms: _408  and  _410
REMARK  171  A    between atoms: _410  and  _411
REMARK  172  A    between atoms: _410  and  _413
REMARK  173  A    between atoms: _413  and  _414
REMARK  174  A    between atoms: _414  and  _415
REMARK  175  A    between atoms: _417  and  _419
REMARK  176  A    between atoms: _419  and  _420
REMARK  177  A    between atoms: _419  and  _422
REMARK  178  A    between atoms: _422  and  _423
REMARK  179  A    between atoms: _426  and  _428
REMARK  180  A    between atoms: _428  and  _429
REMARK  181  A    between atoms: _431  and  _433
REMARK  182  A    between atoms: _433  and  _434
REMARK  183  A    between atoms: _436  and  _438
REMARK  184  A    between atoms: _438  and  _439
REMARK  185  A    between atoms: _438  and  _441
REMARK  186  A    between atoms: _441  and  _442
REMARK  187  A    between atoms: _445  and  _447
REMARK  188  A    between atoms: _447  and  _448
REMARK  189  A    between atoms: _450  and  _452
REMARK  190  A    between atoms: _452  and  _453
REMARK  191  A    between atoms: _455  and  _457
REMARK  192  A    between atoms: _457  and  _458
REMARK  193  A    between atoms: _457  and  _460
REMARK  194  A    between atoms: _460  and  _461
REMARK  195  A    between atoms: _467  and  _469
REMARK  196  A    between atoms: _469  and  _470
REMARK  197  A    between atoms: _469  and  _472
REMARK  198  A    between atoms: _472  and  _473
REMARK  199  A    between atoms: _476  and  _478
REMARK  200  A    between atoms: _478  and  _479
REMARK  201  A    between atoms: _478  and  _481
REMARK  202  A    between atoms: _484  and  _486
REMARK  203  A    between atoms: _486  and  _487
REMARK  204  A    between atoms: _486  and  _489
REMARK  205  A    between atoms: _489  and  _490
REMARK  206  A    between atoms: _493  and  _495
REMARK  207  A    between atoms: _495  and  _496
REMARK  208  A    between atoms: _495  and  _498
REMARK  209  A    between atoms: _498  and  _499
REMARK  210  A    between atoms: _503  and  _504
REMARK  211  A    between atoms: _509  and  _511
REMARK  212  A    between atoms: _511  and  _512
REMARK  213  A    between atoms: _511  and  _514
REMARK  214  A    between atoms: _517  and  _519
REMARK  215  A    between atoms: _519  and  _520
REMARK  216  A    between atoms: _519  and  _522
REMARK  217  A    between atoms: _522  and  _523
REMARK  218  A    between atoms: _528  and  _530
REMARK  219  A    between atoms: _530  and  _531
REMARK  220  A    between atoms: _530  and  _533
REMARK  221  A    between atoms: _533  and  _534
REMARK  222  A    between atoms: _537  and  _539
REMARK  223  A    between atoms: _539  and  _540
REMARK  224  A    between atoms: _539  and  _542
REMARK  225  A    between atoms: _542  and  _543
REMARK  226  A    between atoms: _546  and  _548
REMARK  227  A    between atoms: _548  and  _549
REMARK  228  A    between atoms: _551  and  _553
REMARK  229  A    between atoms: _553  and  _554
REMARK  230  A    between atoms: _553  and  _556
REMARK  231  A    between atoms: _556  and  _557
REMARK  232  A    between atoms: _557  and  _558
REMARK  233  A    between atoms: _558  and  _559
REMARK                            x       y       z     vdW  Elec       q    Type
REMARK                         _______ _______ _______ _____ _____    ______ ____
ROOT
ATOM      1  O   HOH     1      53.248  23.409  20.694  0.00  0.00    +0.000 OA
ENDROOT
TORSDOF 0
