REMARK  Name = ../refined-set-2016/1b3f/1b3f_pocket.pdb
REMARK  269 active torsions:
REMARK  status: ('A' for Active; 'I' for Inactive)
REMARK    1  A    between atoms: _1  and  _3
REMARK    2  A    between atoms: _3  and  _4
REMARK    3  A    between atoms: _3  and  _6
REMARK    4  A    between atoms: _6  and  _7
REMARK    5  A    between atoms: _12  and  _14
REMARK    6  A    between atoms: _14  and  _15
REMARK    7  A    between atoms: _17  and  _19
REMARK    8  A    between atoms: _19  and  _20
REMARK    9  A    between atoms: _19  and  _22
REMARK   10  A    between atoms: _22  and  _23
REMARK   11  A    between atoms: _25  and  _27
REMARK   12  A    between atoms: _27  and  _28
REMARK   13  A    between atoms: _27  and  _30
REMARK   14  A    between atoms: _30  and  _31
REMARK   15  A    between atoms: _31  and  _32
REMARK   16  A    between atoms: _37  and  _39
REMARK   17  A    between atoms: _39  and  _40
REMARK   18  A    between atoms: _39  and  _42
REMARK   19  A    between atoms: _42  and  _43
REMARK   20  A    between atoms: _46  and  _48
REMARK   21  A    between atoms: _48  and  _49
REMARK   22  A    between atoms: _48  and  _51
REMARK   23  A    between atoms: _52  and  _53
REMARK   24  A    between atoms: _56  and  _58
REMARK   25  A    between atoms: _58  and  _59
REMARK   26  A    between atoms: _61  and  _63
REMARK   27  A    between atoms: _63  and  _64
REMARK   28  A    between atoms: _63  and  _66
REMARK   29  A    between atoms: _70  and  _71
REMARK   30  A    between atoms: _76  and  _78
REMARK   31  A    between atoms: _78  and  _79
REMARK   32  A    between atoms: _78  and  _81
REMARK   33  A    between atoms: _81  and  _82
REMARK   34  A    between atoms: _82  and  _83
REMARK   35  A    between atoms: _86  and  _88
REMARK   36  A    between atoms: _88  and  _89
REMARK   37  A    between atoms: _88  and  _91
REMARK   38  A    between atoms: _91  and  _92
REMARK   39  A    between atoms: _94  and  _96
REMARK   40  A    between atoms: _96  and  _97
REMARK   41  A    between atoms: _96  and  _99
REMARK   42  A    between atoms: _99  and  _100
REMARK   43  A    between atoms: _105  and  _107
REMARK   44  A    between atoms: _107  and  _108
REMARK   45  A    between atoms: _107  and  _110
REMARK   46  A    between atoms: _110  and  _111
REMARK   47  A    between atoms: _111  and  _112
REMARK   48  A    between atoms: _112  and  _113
REMARK   49  A    between atoms: _123  and  _124
REMARK   50  A    between atoms: _129  and  _131
REMARK   51  A    between atoms: _131  and  _132
REMARK   52  A    between atoms: _131  and  _134
REMARK   53  A    between atoms: _134  and  _135
REMARK   54  A    between atoms: _140  and  _141
REMARK   55  A    between atoms: _143  and  _145
REMARK   56  A    between atoms: _145  and  _146
REMARK   57  A    between atoms: _145  and  _148
REMARK   58  A    between atoms: _148  and  _149
REMARK   59  A    between atoms: _154  and  _155
REMARK   60  A    between atoms: _157  and  _159
REMARK   61  A    between atoms: _159  and  _160
REMARK   62  A    between atoms: _159  and  _162
REMARK   63  A    between atoms: _165  and  _167
REMARK   64  A    between atoms: _167  and  _168
REMARK   65  A    between atoms: _167  and  _170
REMARK   66  A    between atoms: _170  and  _171
REMARK   67  A    between atoms: _177  and  _178
REMARK   68  A    between atoms: _183  and  _185
REMARK   69  A    between atoms: _185  and  _186
REMARK   70  A    between atoms: _185  and  _188
REMARK   71  A    between atoms: _188  and  _189
REMARK   72  A    between atoms: _191  and  _193
REMARK   73  A    between atoms: _193  and  _194
REMARK   74  A    between atoms: _193  and  _196
REMARK   75  A    between atoms: _196  and  _197
REMARK   76  A    between atoms: _197  and  _198
REMARK   77  A    between atoms: _201  and  _203
REMARK   78  A    between atoms: _203  and  _204
REMARK   79  A    between atoms: _203  and  _206
REMARK   80  A    between atoms: _206  and  _207
REMARK   81  A    between atoms: _212  and  _213
REMARK   82  A    between atoms: _215  and  _217
REMARK   83  A    between atoms: _217  and  _218
REMARK   84  A    between atoms: _217  and  _220
REMARK   85  A    between atoms: _220  and  _221
REMARK   86  A    between atoms: _226  and  _228
REMARK   87  A    between atoms: _228  and  _229
REMARK   88  A    between atoms: _228  and  _231
REMARK   89  A    between atoms: _231  and  _232
REMARK   90  A    between atoms: _237  and  _239
REMARK   91  A    between atoms: _239  and  _240
REMARK   92  A    between atoms: _239  and  _242
REMARK   93  A    between atoms: _242  and  _243
REMARK   94  A    between atoms: _243  and  _244
REMARK   95  A    between atoms: _246  and  _248
REMARK   96  A    between atoms: _248  and  _249
REMARK   97  A    between atoms: _248  and  _251
REMARK   98  A    between atoms: _251  and  _252
REMARK   99  A    between atoms: _257  and  _258
REMARK  100  A    between atoms: _260  and  _262
REMARK  101  A    between atoms: _262  and  _263
REMARK  102  A    between atoms: _262  and  _265
REMARK  103  A    between atoms: _265  and  _266
REMARK  104  A    between atoms: _269  and  _271
REMARK  105  A    between atoms: _271  and  _272
REMARK  106  A    between atoms: _271  and  _274
REMARK  107  A    between atoms: _274  and  _275
REMARK  108  A    between atoms: _275  and  _496
REMARK  109  A    between atoms: _276  and  _278
REMARK  110  A    between atoms: _278  and  _279
REMARK  111  A    between atoms: _278  and  _281
REMARK  112  A    between atoms: _281  and  _282
REMARK  113  A    between atoms: _285  and  _287
REMARK  114  A    between atoms: _287  and  _288
REMARK  115  A    between atoms: _287  and  _290
REMARK  116  A    between atoms: _290  and  _291
REMARK  117  A    between atoms: _296  and  _297
REMARK  118  A    between atoms: _299  and  _301
REMARK  119  A    between atoms: _301  and  _302
REMARK  120  A    between atoms: _301  and  _304
REMARK  121  A    between atoms: _304  and  _305
REMARK  122  A    between atoms: _310  and  _311
REMARK  123  A    between atoms: _313  and  _315
REMARK  124  A    between atoms: _315  and  _316
REMARK  125  A    between atoms: _315  and  _318
REMARK  126  A    between atoms: _318  and  _319
REMARK  127  A    between atoms: _319  and  _320
REMARK  128  A    between atoms: _323  and  _325
REMARK  129  A    between atoms: _325  and  _326
REMARK  130  A    between atoms: _325  and  _328
REMARK  131  A    between atoms: _328  and  _329
REMARK  132  A    between atoms: _329  and  _330
REMARK  133  A    between atoms: _330  and  _331
REMARK  134  A    between atoms: _331  and  _332
REMARK  135  A    between atoms: _336  and  _338
REMARK  136  A    between atoms: _338  and  _339
REMARK  137  A    between atoms: _338  and  _341
REMARK  138  A    between atoms: _341  and  _342
REMARK  139  A    between atoms: _347  and  _348
REMARK  140  A    between atoms: _350  and  _352
REMARK  141  A    between atoms: _352  and  _353
REMARK  142  A    between atoms: _352  and  _355
REMARK  143  A    between atoms: _355  and  _356
REMARK  144  A    between atoms: _361  and  _363
REMARK  145  A    between atoms: _363  and  _364
REMARK  146  A    between atoms: _363  and  _366
REMARK  147  A    between atoms: _366  and  _367
REMARK  148  A    between atoms: _370  and  _372
REMARK  149  A    between atoms: _372  and  _373
REMARK  150  A    between atoms: _372  and  _375
REMARK  151  A    between atoms: _375  and  _376
REMARK  152  A    between atoms: _381  and  _383
REMARK  153  A    between atoms: _383  and  _384
REMARK  154  A    between atoms: _383  and  _386
REMARK  155  A    between atoms: _386  and  _387
REMARK  156  A    between atoms: _397  and  _399
REMARK  157  A    between atoms: _399  and  _400
REMARK  158  A    between atoms: _399  and  _402
REMARK  159  A    between atoms: _402  and  _403
REMARK  160  A    between atoms: _409  and  _411
REMARK  161  A    between atoms: _411  and  _412
REMARK  162  A    between atoms: _411  and  _414
REMARK  163  A    between atoms: _414  and  _415
REMARK  164  A    between atoms: _418  and  _420
REMARK  165  A    between atoms: _420  and  _421
REMARK  166  A    between atoms: _420  and  _423
REMARK  167  A    between atoms: _423  and  _424
REMARK  168  A    between atoms: _424  and  _425
REMARK  169  A    between atoms: _425  and  _426
REMARK  170  A    between atoms: _435  and  _437
REMARK  171  A    between atoms: _437  and  _438
REMARK  172  A    between atoms: _437  and  _440
REMARK  173  A    between atoms: _440  and  _441
REMARK  174  A    between atoms: _446  and  _448
REMARK  175  A    between atoms: _448  and  _449
REMARK  176  A    between atoms: _448  and  _451
REMARK  177  A    between atoms: _451  and  _452
REMARK  178  A    between atoms: _452  and  _453
REMARK  179  A    between atoms: _453  and  _454
REMARK  180  A    between atoms: _463  and  _465
REMARK  181  A    between atoms: _465  and  _466
REMARK  182  A    between atoms: _469  and  _471
REMARK  183  A    between atoms: _471  and  _472
REMARK  184  A    between atoms: _474  and  _476
REMARK  185  A    between atoms: _476  and  _477
REMARK  186  A    between atoms: _476  and  _479
REMARK  187  A    between atoms: _479  and  _480
REMARK  188  A    between atoms: _490  and  _492
REMARK  189  A    between atoms: _492  and  _493
REMARK  190  A    between atoms: _492  and  _495
REMARK  191  A    between atoms: _495  and  _496
REMARK  192  A    between atoms: _497  and  _499
REMARK  193  A    between atoms: _499  and  _500
REMARK  194  A    between atoms: _503  and  _505
REMARK  195  A    between atoms: _505  and  _506
REMARK  196  A    between atoms: _505  and  _508
REMARK  197  A    between atoms: _508  and  _509
REMARK  198  A    between atoms: _512  and  _514
REMARK  199  A    between atoms: _514  and  _515
REMARK  200  A    between atoms: _514  and  _517
REMARK  201  A    between atoms: _517  and  _518
REMARK  202  A    between atoms: _523  and  _524
REMARK  203  A    between atoms: _526  and  _528
REMARK  204  A    between atoms: _528  and  _529
REMARK  205  A    between atoms: _528  and  _531
REMARK  206  A    between atoms: _531  and  _532
REMARK  207  A    between atoms: _534  and  _536
REMARK  208  A    between atoms: _536  and  _537
REMARK  209  A    between atoms: _536  and  _539
REMARK  210  A    between atoms: _539  and  _540
REMARK  211  A    between atoms: _546  and  _548
REMARK  212  A    between atoms: _548  and  _549
REMARK  213  A    between atoms: _548  and  _551
REMARK  214  A    between atoms: _551  and  _552
REMARK  215  A    between atoms: _555  and  _557
REMARK  216  A    between atoms: _557  and  _558
REMARK  217  A    between atoms: _557  and  _560
REMARK  218  A    between atoms: _560  and  _561
REMARK  219  A    between atoms: _563  and  _565
REMARK  220  A    between atoms: _565  and  _566
REMARK  221  A    between atoms: _565  and  _568
REMARK  222  A    between atoms: _568  and  _569
REMARK  223  A    between atoms: _574  and  _576
REMARK  224  A    between atoms: _576  and  _577
REMARK  225  A    between atoms: _576  and  _579
REMARK  226  A    between atoms: _579  and  _580
REMARK  227  A    between atoms: _585  and  _587
REMARK  228  A    between atoms: _587  and  _588
REMARK  229  A    between atoms: _587  and  _590
REMARK  230  A    between atoms: _590  and  _591
REMARK  231  A    between atoms: _594  and  _596
REMARK  232  A    between atoms: _596  and  _597
REMARK  233  A    between atoms: _600  and  _602
REMARK  234  A    between atoms: _602  and  _603
REMARK  235  A    between atoms: _602  and  _605
REMARK  236  A    between atoms: _605  and  _606
REMARK  237  A    between atoms: _611  and  _612
REMARK  238  A    between atoms: _614  and  _616
REMARK  239  A    between atoms: _616  and  _617
REMARK  240  A    between atoms: _616  and  _619
REMARK  241  A    between atoms: _619  and  _620
REMARK  242  A    between atoms: _625  and  _626
REMARK  243  A    between atoms: _628  and  _630
REMARK  244  A    between atoms: _630  and  _631
REMARK  245  A    between atoms: _630  and  _633
REMARK  246  A    between atoms: _636  and  _638
REMARK  247  A    between atoms: _638  and  _639
REMARK  248  A    between atoms: _638  and  _641
REMARK  249  A    between atoms: _641  and  _642
REMARK  250  A    between atoms: _647  and  _649
REMARK  251  A    between atoms: _649  and  _650
REMARK  252  A    between atoms: _653  and  _655
REMARK  253  A    between atoms: _655  and  _656
REMARK  254  A    between atoms: _655  and  _658
REMARK  255  A    between atoms: _658  and  _659
REMARK  256  A    between atoms: _659  and  _660
REMARK  257  A    between atoms: _660  and  _661
REMARK  258  A    between atoms: _670  and  _672
REMARK  259  A    between atoms: _672  and  _673
REMARK  260  A    between atoms: _672  and  _675
REMARK  261  A    between atoms: _675  and  _676
REMARK  262  A    between atoms: _679  and  _681
REMARK  263  A    between atoms: _681  and  _682
REMARK  264  A    between atoms: _681  and  _684
REMARK  265  A    between atoms: _684  and  _685
REMARK  266  A    between atoms: _688  and  _690
REMARK  267  A    between atoms: _690  and  _691
REMARK  268  A    between atoms: _690  and  _693
REMARK  269  A    between atoms: _693  and  _694
REMARK                            x       y       z     vdW  Elec       q    Type
REMARK                         _______ _______ _______ _____ _____    ______ ____
ROOT
ATOM      1  C   ASN A   1      -3.359  23.357   6.751  0.00  0.00    +0.239 C 
ATOM      2  O   ASN A   1      -2.344  23.475   7.440  0.00  0.00    -0.274 OA
ATOM      3  N   GLY A   2      -4.557  23.718   7.242  0.00  0.00    -0.296 N 
ATOM      4  H   GLY A   2      -5.383  23.702   6.610  0.00  0.00    +0.150 HD
ENDROOT
BRANCH   1   5
ATOM      5  CA  ASN A   1      -3.356  22.781   5.348  0.00  0.00    +0.154 C 
BRANCH   5   6
ATOM      6  N   ASN A   1      -4.586  23.059   4.599  0.00  0.00    -0.238 NA
ATOM      7  H   ASN A   1      -4.914  24.042   4.505  0.00  0.00    +0.142 HD
ENDBRANCH   5   6
BRANCH   5   8
ATOM      8  CB  ASN A   1      -2.193  23.425   4.540  0.00  0.00    +0.111 C 
BRANCH   8   9
ATOM      9  CG  ASN A   1      -0.823  22.821   4.925  0.00  0.00    +0.221 C 
ATOM     10  OD1 ASN A   1      -0.712  21.617   5.175  0.00  0.00    -0.275 OA
ATOM     11  ND2 ASN A   1       0.197  23.673   4.937  0.00  0.00    -0.329 N 
ATOM     12 HD21 ASN A   1       1.154  23.336   5.166  0.00  0.00    +0.145 HD
ATOM     13 HD22 ASN A   1       0.038  24.677   4.717  0.00  0.00    +0.145 HD
ENDBRANCH   8   9
ENDBRANCH   5   8
ENDBRANCH   1   5
BRANCH   3  14
ATOM     14  CA  GLY A   2      -4.740  24.126   8.611  0.00  0.00    +0.176 C 
BRANCH  14  15
ATOM     15  C   GLY A   2      -4.410  25.534   9.039  0.00  0.00    +0.243 C 
ATOM     16  O   GLY A   2      -5.017  26.038   9.971  0.00  0.00    -0.273 OA
ATOM     17  N   SER A   3      -3.373  26.146   8.540  0.00  0.00    -0.296 N 
ATOM     18  H   SER A   3      -2.819  25.625   7.831  0.00  0.00    +0.150 HD
BRANCH  17  19
ATOM     19  CA  SER A   3      -2.921  27.463   8.871  0.00  0.00    +0.166 C 
BRANCH  19  20
ATOM     20  C   SER A   3      -1.873  27.910   7.836  0.00  0.00    +0.229 C 
ATOM     21  O   SER A   3      -1.431  27.111   7.022  0.00  0.00    -0.286 OA
ENDBRANCH  19  20
BRANCH  19  22
ATOM     22  CB  SER A   3      -2.201  27.487  10.232  0.00  0.00    +0.165 C 
BRANCH  22  23
ATOM     23  OG  SER A   3      -1.417  26.293  10.358  0.00  0.00    -0.380 OA
ATOM     24  H   SER A   3      -2.011  25.503  10.305  0.00  0.00    +0.211 HD
ENDBRANCH  22  23
ENDBRANCH  19  22
ENDBRANCH  17  19
ENDBRANCH  14  15
ENDBRANCH   3  14
TORSDOF 10
REMARK  Name = ../refined-set-2016/1b3f/1b3f_pocket.pdb
REMARK  269 active torsions:
REMARK  status: ('A' for Active; 'I' for Inactive)
REMARK    1  A    between atoms: _1  and  _3
REMARK    2  A    between atoms: _3  and  _4
REMARK    3  A    between atoms: _3  and  _6
REMARK    4  A    between atoms: _6  and  _7
REMARK    5  A    between atoms: _12  and  _14
REMARK    6  A    between atoms: _14  and  _15
REMARK    7  A    between atoms: _17  and  _19
REMARK    8  A    between atoms: _19  and  _20
REMARK    9  A    between atoms: _19  and  _22
REMARK   10  A    between atoms: _22  and  _23
REMARK   11  A    between atoms: _25  and  _27
REMARK   12  A    between atoms: _27  and  _28
REMARK   13  A    between atoms: _27  and  _30
REMARK   14  A    between atoms: _30  and  _31
REMARK   15  A    between atoms: _31  and  _32
REMARK   16  A    between atoms: _37  and  _39
REMARK   17  A    between atoms: _39  and  _40
REMARK   18  A    between atoms: _39  and  _42
REMARK   19  A    between atoms: _42  and  _43
REMARK   20  A    between atoms: _46  and  _48
REMARK   21  A    between atoms: _48  and  _49
REMARK   22  A    between atoms: _48  and  _51
REMARK   23  A    between atoms: _52  and  _53
REMARK   24  A    between atoms: _56  and  _58
REMARK   25  A    between atoms: _58  and  _59
REMARK   26  A    between atoms: _61  and  _63
REMARK   27  A    between atoms: _63  and  _64
REMARK   28  A    between atoms: _63  and  _66
REMARK   29  A    between atoms: _70  and  _71
REMARK   30  A    between atoms: _76  and  _78
REMARK   31  A    between atoms: _78  and  _79
REMARK   32  A    between atoms: _78  and  _81
REMARK   33  A    between atoms: _81  and  _82
REMARK   34  A    between atoms: _82  and  _83
REMARK   35  A    between atoms: _86  and  _88
REMARK   36  A    between atoms: _88  and  _89
REMARK   37  A    between atoms: _88  and  _91
REMARK   38  A    between atoms: _91  and  _92
REMARK   39  A    between atoms: _94  and  _96
REMARK   40  A    between atoms: _96  and  _97
REMARK   41  A    between atoms: _96  and  _99
REMARK   42  A    between atoms: _99  and  _100
REMARK   43  A    between atoms: _105  and  _107
REMARK   44  A    between atoms: _107  and  _108
REMARK   45  A    between atoms: _107  and  _110
REMARK   46  A    between atoms: _110  and  _111
REMARK   47  A    between atoms: _111  and  _112
REMARK   48  A    between atoms: _112  and  _113
REMARK   49  A    between atoms: _123  and  _124
REMARK   50  A    between atoms: _129  and  _131
REMARK   51  A    between atoms: _131  and  _132
REMARK   52  A    between atoms: _131  and  _134
REMARK   53  A    between atoms: _134  and  _135
REMARK   54  A    between atoms: _140  and  _141
REMARK   55  A    between atoms: _143  and  _145
REMARK   56  A    between atoms: _145  and  _146
REMARK   57  A    between atoms: _145  and  _148
REMARK   58  A    between atoms: _148  and  _149
REMARK   59  A    between atoms: _154  and  _155
REMARK   60  A    between atoms: _157  and  _159
REMARK   61  A    between atoms: _159  and  _160
REMARK   62  A    between atoms: _159  and  _162
REMARK   63  A    between atoms: _165  and  _167
REMARK   64  A    between atoms: _167  and  _168
REMARK   65  A    between atoms: _167  and  _170
REMARK   66  A    between atoms: _170  and  _171
REMARK   67  A    between atoms: _177  and  _178
REMARK   68  A    between atoms: _183  and  _185
REMARK   69  A    between atoms: _185  and  _186
REMARK   70  A    between atoms: _185  and  _188
REMARK   71  A    between atoms: _188  and  _189
REMARK   72  A    between atoms: _191  and  _193
REMARK   73  A    between atoms: _193  and  _194
REMARK   74  A    between atoms: _193  and  _196
REMARK   75  A    between atoms: _196  and  _197
REMARK   76  A    between atoms: _197  and  _198
REMARK   77  A    between atoms: _201  and  _203
REMARK   78  A    between atoms: _203  and  _204
REMARK   79  A    between atoms: _203  and  _206
REMARK   80  A    between atoms: _206  and  _207
REMARK   81  A    between atoms: _212  and  _213
REMARK   82  A    between atoms: _215  and  _217
REMARK   83  A    between atoms: _217  and  _218
REMARK   84  A    between atoms: _217  and  _220
REMARK   85  A    between atoms: _220  and  _221
REMARK   86  A    between atoms: _226  and  _228
REMARK   87  A    between atoms: _228  and  _229
REMARK   88  A    between atoms: _228  and  _231
REMARK   89  A    between atoms: _231  and  _232
REMARK   90  A    between atoms: _237  and  _239
REMARK   91  A    between atoms: _239  and  _240
REMARK   92  A    between atoms: _239  and  _242
REMARK   93  A    between atoms: _242  and  _243
REMARK   94  A    between atoms: _243  and  _244
REMARK   95  A    between atoms: _246  and  _248
REMARK   96  A    between atoms: _248  and  _249
REMARK   97  A    between atoms: _248  and  _251
REMARK   98  A    between atoms: _251  and  _252
REMARK   99  A    between atoms: _257  and  _258
REMARK  100  A    between atoms: _260  and  _262
REMARK  101  A    between atoms: _262  and  _263
REMARK  102  A    between atoms: _262  and  _265
REMARK  103  A    between atoms: _265  and  _266
REMARK  104  A    between atoms: _269  and  _271
REMARK  105  A    between atoms: _271  and  _272
REMARK  106  A    between atoms: _271  and  _274
REMARK  107  A    between atoms: _274  and  _275
REMARK  108  A    between atoms: _275  and  _496
REMARK  109  A    between atoms: _276  and  _278
REMARK  110  A    between atoms: _278  and  _279
REMARK  111  A    between atoms: _278  and  _281
REMARK  112  A    between atoms: _281  and  _282
REMARK  113  A    between atoms: _285  and  _287
REMARK  114  A    between atoms: _287  and  _288
REMARK  115  A    between atoms: _287  and  _290
REMARK  116  A    between atoms: _290  and  _291
REMARK  117  A    between atoms: _296  and  _297
REMARK  118  A    between atoms: _299  and  _301
REMARK  119  A    between atoms: _301  and  _302
REMARK  120  A    between atoms: _301  and  _304
REMARK  121  A    between atoms: _304  and  _305
REMARK  122  A    between atoms: _310  and  _311
REMARK  123  A    between atoms: _313  and  _315
REMARK  124  A    between atoms: _315  and  _316
REMARK  125  A    between atoms: _315  and  _318
REMARK  126  A    between atoms: _318  and  _319
REMARK  127  A    between atoms: _319  and  _320
REMARK  128  A    between atoms: _323  and  _325
REMARK  129  A    between atoms: _325  and  _326
REMARK  130  A    between atoms: _325  and  _328
REMARK  131  A    between atoms: _328  and  _329
REMARK  132  A    between atoms: _329  and  _330
REMARK  133  A    between atoms: _330  and  _331
REMARK  134  A    between atoms: _331  and  _332
REMARK  135  A    between atoms: _336  and  _338
REMARK  136  A    between atoms: _338  and  _339
REMARK  137  A    between atoms: _338  and  _341
REMARK  138  A    between atoms: _341  and  _342
REMARK  139  A    between atoms: _347  and  _348
REMARK  140  A    between atoms: _350  and  _352
REMARK  141  A    between atoms: _352  and  _353
REMARK  142  A    between atoms: _352  and  _355
REMARK  143  A    between atoms: _355  and  _356
REMARK  144  A    between atoms: _361  and  _363
REMARK  145  A    between atoms: _363  and  _364
REMARK  146  A    between atoms: _363  and  _366
REMARK  147  A    between atoms: _366  and  _367
REMARK  148  A    between atoms: _370  and  _372
REMARK  149  A    between atoms: _372  and  _373
REMARK  150  A    between atoms: _372  and  _375
REMARK  151  A    between atoms: _375  and  _376
REMARK  152  A    between atoms: _381  and  _383
REMARK  153  A    between atoms: _383  and  _384
REMARK  154  A    between atoms: _383  and  _386
REMARK  155  A    between atoms: _386  and  _387
REMARK  156  A    between atoms: _397  and  _399
REMARK  157  A    between atoms: _399  and  _400
REMARK  158  A    between atoms: _399  and  _402
REMARK  159  A    between atoms: _402  and  _403
REMARK  160  A    between atoms: _409  and  _411
REMARK  161  A    between atoms: _411  and  _412
REMARK  162  A    between atoms: _411  and  _414
REMARK  163  A    between atoms: _414  and  _415
REMARK  164  A    between atoms: _418  and  _420
REMARK  165  A    between atoms: _420  and  _421
REMARK  166  A    between atoms: _420  and  _423
REMARK  167  A    between atoms: _423  and  _424
REMARK  168  A    between atoms: _424  and  _425
REMARK  169  A    between atoms: _425  and  _426
REMARK  170  A    between atoms: _435  and  _437
REMARK  171  A    between atoms: _437  and  _438
REMARK  172  A    between atoms: _437  and  _440
REMARK  173  A    between atoms: _440  and  _441
REMARK  174  A    between atoms: _446  and  _448
REMARK  175  A    between atoms: _448  and  _449
REMARK  176  A    between atoms: _448  and  _451
REMARK  177  A    between atoms: _451  and  _452
REMARK  178  A    between atoms: _452  and  _453
REMARK  179  A    between atoms: _453  and  _454
REMARK  180  A    between atoms: _463  and  _465
REMARK  181  A    between atoms: _465  and  _466
REMARK  182  A    between atoms: _469  and  _471
REMARK  183  A    between atoms: _471  and  _472
REMARK  184  A    between atoms: _474  and  _476
REMARK  185  A    between atoms: _476  and  _477
REMARK  186  A    between atoms: _476  and  _479
REMARK  187  A    between atoms: _479  and  _480
REMARK  188  A    between atoms: _490  and  _492
REMARK  189  A    between atoms: _492  and  _493
REMARK  190  A    between atoms: _492  and  _495
REMARK  191  A    between atoms: _495  and  _496
REMARK  192  A    between atoms: _497  and  _499
REMARK  193  A    between atoms: _499  and  _500
REMARK  194  A    between atoms: _503  and  _505
REMARK  195  A    between atoms: _505  and  _506
REMARK  196  A    between atoms: _505  and  _508
REMARK  197  A    between atoms: _508  and  _509
REMARK  198  A    between atoms: _512  and  _514
REMARK  199  A    between atoms: _514  and  _515
REMARK  200  A    between atoms: _514  and  _517
REMARK  201  A    between atoms: _517  and  _518
REMARK  202  A    between atoms: _523  and  _524
REMARK  203  A    between atoms: _526  and  _528
REMARK  204  A    between atoms: _528  and  _529
REMARK  205  A    between atoms: _528  and  _531
REMARK  206  A    between atoms: _531  and  _532
REMARK  207  A    between atoms: _534  and  _536
REMARK  208  A    between atoms: _536  and  _537
REMARK  209  A    between atoms: _536  and  _539
REMARK  210  A    between atoms: _539  and  _540
REMARK  211  A    between atoms: _546  and  _548
REMARK  212  A    between atoms: _548  and  _549
REMARK  213  A    between atoms: _548  and  _551
REMARK  214  A    between atoms: _551  and  _552
REMARK  215  A    between atoms: _555  and  _557
REMARK  216  A    between atoms: _557  and  _558
REMARK  217  A    between atoms: _557  and  _560
REMARK  218  A    between atoms: _560  and  _561
REMARK  219  A    between atoms: _563  and  _565
REMARK  220  A    between atoms: _565  and  _566
REMARK  221  A    between atoms: _565  and  _568
REMARK  222  A    between atoms: _568  and  _569
REMARK  223  A    between atoms: _574  and  _576
REMARK  224  A    between atoms: _576  and  _577
REMARK  225  A    between atoms: _576  and  _579
REMARK  226  A    between atoms: _579  and  _580
REMARK  227  A    between atoms: _585  and  _587
REMARK  228  A    between atoms: _587  and  _588
REMARK  229  A    between atoms: _587  and  _590
REMARK  230  A    between atoms: _590  and  _591
REMARK  231  A    between atoms: _594  and  _596
REMARK  232  A    between atoms: _596  and  _597
REMARK  233  A    between atoms: _600  and  _602
REMARK  234  A    between atoms: _602  and  _603
REMARK  235  A    between atoms: _602  and  _605
REMARK  236  A    between atoms: _605  and  _606
REMARK  237  A    between atoms: _611  and  _612
REMARK  238  A    between atoms: _614  and  _616
REMARK  239  A    between atoms: _616  and  _617
REMARK  240  A    between atoms: _616  and  _619
REMARK  241  A    between atoms: _619  and  _620
REMARK  242  A    between atoms: _625  and  _626
REMARK  243  A    between atoms: _628  and  _630
REMARK  244  A    between atoms: _630  and  _631
REMARK  245  A    between atoms: _630  and  _633
REMARK  246  A    between atoms: _636  and  _638
REMARK  247  A    between atoms: _638  and  _639
REMARK  248  A    between atoms: _638  and  _641
REMARK  249  A    between atoms: _641  and  _642
REMARK  250  A    between atoms: _647  and  _649
REMARK  251  A    between atoms: _649  and  _650
REMARK  252  A    between atoms: _653  and  _655
REMARK  253  A    between atoms: _655  and  _656
REMARK  254  A    between atoms: _655  and  _658
REMARK  255  A    between atoms: _658  and  _659
REMARK  256  A    between atoms: _659  and  _660
REMARK  257  A    between atoms: _660  and  _661
REMARK  258  A    between atoms: _670  and  _672
REMARK  259  A    between atoms: _672  and  _673
REMARK  260  A    between atoms: _672  and  _675
REMARK  261  A    between atoms: _675  and  _676
REMARK  262  A    between atoms: _679  and  _681
REMARK  263  A    between atoms: _681  and  _682
REMARK  264  A    between atoms: _681  and  _684
REMARK  265  A    between atoms: _684  and  _685
REMARK  266  A    between atoms: _688  and  _690
REMARK  267  A    between atoms: _690  and  _691
REMARK  268  A    between atoms: _690  and  _693
REMARK  269  A    between atoms: _693  and  _694
REMARK                            x       y       z     vdW  Elec       q    Type
REMARK                         _______ _______ _______ _____ _____    ______ ____
ROOT
ATOM      1  CB  GLN A   1       6.578  28.626  10.477  0.00  0.00    +0.035 C 
ENDROOT
BRANCH   1   2
ATOM      2  CA  GLN A   1       5.680  29.435   9.524  0.00  0.00    +0.134 C 
BRANCH   2   3
ATOM      3  N   GLN A   1       4.669  28.618   8.882  0.00  0.00    -0.239 NA
ATOM      4  H   GLN A   1       4.587  27.615   9.142  0.00  0.00    +0.142 HD
ENDBRANCH   2   3
BRANCH   2   5
ATOM      5  C   GLN A   1       6.684  29.933   8.458  0.00  0.00    +0.224 C 
ATOM      6  O   GLN A   1       7.158  31.084   8.519  0.00  0.00    -0.287 OA
ENDBRANCH   2   5
ENDBRANCH   1   2
BRANCH   1   7
ATOM      7  CG  GLN A   1       5.865  28.201  11.773  0.00  0.00    +0.087 C 
BRANCH   7   8
ATOM      8  CD  GLN A   1       6.808  27.242  12.521  0.00  0.00    +0.219 C 
ATOM      9  NE2 GLN A   1       7.358  27.611  13.669  0.00  0.00    -0.329 N 
ATOM     10 HE21 GLN A   1       7.978  26.954  14.183  0.00  0.00    +0.145 HD
ATOM     11 HE22 GLN A   1       7.169  28.558  14.055  0.00  0.00    +0.145 HD
ATOM     12  OE1 GLN A   1       6.996  26.130  12.013  0.00  0.00    -0.275 OA
ENDBRANCH   7   8
ENDBRANCH   1   7
TORSDOF 5
REMARK  Name = ../refined-set-2016/1b3f/1b3f_pocket.pdb
REMARK  269 active torsions:
REMARK  status: ('A' for Active; 'I' for Inactive)
REMARK    1  A    between atoms: _1  and  _3
REMARK    2  A    between atoms: _3  and  _4
REMARK    3  A    between atoms: _3  and  _6
REMARK    4  A    between atoms: _6  and  _7
REMARK    5  A    between atoms: _12  and  _14
REMARK    6  A    between atoms: _14  and  _15
REMARK    7  A    between atoms: _17  and  _19
REMARK    8  A    between atoms: _19  and  _20
REMARK    9  A    between atoms: _19  and  _22
REMARK   10  A    between atoms: _22  and  _23
REMARK   11  A    between atoms: _25  and  _27
REMARK   12  A    between atoms: _27  and  _28
REMARK   13  A    between atoms: _27  and  _30
REMARK   14  A    between atoms: _30  and  _31
REMARK   15  A    between atoms: _31  and  _32
REMARK   16  A    between atoms: _37  and  _39
REMARK   17  A    between atoms: _39  and  _40
REMARK   18  A    between atoms: _39  and  _42
REMARK   19  A    between atoms: _42  and  _43
REMARK   20  A    between atoms: _46  and  _48
REMARK   21  A    between atoms: _48  and  _49
REMARK   22  A    between atoms: _48  and  _51
REMARK   23  A    between atoms: _52  and  _53
REMARK   24  A    between atoms: _56  and  _58
REMARK   25  A    between atoms: _58  and  _59
REMARK   26  A    between atoms: _61  and  _63
REMARK   27  A    between atoms: _63  and  _64
REMARK   28  A    between atoms: _63  and  _66
REMARK   29  A    between atoms: _70  and  _71
REMARK   30  A    between atoms: _76  and  _78
REMARK   31  A    between atoms: _78  and  _79
REMARK   32  A    between atoms: _78  and  _81
REMARK   33  A    between atoms: _81  and  _82
REMARK   34  A    between atoms: _82  and  _83
REMARK   35  A    between atoms: _86  and  _88
REMARK   36  A    between atoms: _88  and  _89
REMARK   37  A    between atoms: _88  and  _91
REMARK   38  A    between atoms: _91  and  _92
REMARK   39  A    between atoms: _94  and  _96
REMARK   40  A    between atoms: _96  and  _97
REMARK   41  A    between atoms: _96  and  _99
REMARK   42  A    between atoms: _99  and  _100
REMARK   43  A    between atoms: _105  and  _107
REMARK   44  A    between atoms: _107  and  _108
REMARK   45  A    between atoms: _107  and  _110
REMARK   46  A    between atoms: _110  and  _111
REMARK   47  A    between atoms: _111  and  _112
REMARK   48  A    between atoms: _112  and  _113
REMARK   49  A    between atoms: _123  and  _124
REMARK   50  A    between atoms: _129  and  _131
REMARK   51  A    between atoms: _131  and  _132
REMARK   52  A    between atoms: _131  and  _134
REMARK   53  A    between atoms: _134  and  _135
REMARK   54  A    between atoms: _140  and  _141
REMARK   55  A    between atoms: _143  and  _145
REMARK   56  A    between atoms: _145  and  _146
REMARK   57  A    between atoms: _145  and  _148
REMARK   58  A    between atoms: _148  and  _149
REMARK   59  A    between atoms: _154  and  _155
REMARK   60  A    between atoms: _157  and  _159
REMARK   61  A    between atoms: _159  and  _160
REMARK   62  A    between atoms: _159  and  _162
REMARK   63  A    between atoms: _165  and  _167
REMARK   64  A    between atoms: _167  and  _168
REMARK   65  A    between atoms: _167  and  _170
REMARK   66  A    between atoms: _170  and  _171
REMARK   67  A    between atoms: _177  and  _178
REMARK   68  A    between atoms: _183  and  _185
REMARK   69  A    between atoms: _185  and  _186
REMARK   70  A    between atoms: _185  and  _188
REMARK   71  A    between atoms: _188  and  _189
REMARK   72  A    between atoms: _191  and  _193
REMARK   73  A    between atoms: _193  and  _194
REMARK   74  A    between atoms: _193  and  _196
REMARK   75  A    between atoms: _196  and  _197
REMARK   76  A    between atoms: _197  and  _198
REMARK   77  A    between atoms: _201  and  _203
REMARK   78  A    between atoms: _203  and  _204
REMARK   79  A    between atoms: _203  and  _206
REMARK   80  A    between atoms: _206  and  _207
REMARK   81  A    between atoms: _212  and  _213
REMARK   82  A    between atoms: _215  and  _217
REMARK   83  A    between atoms: _217  and  _218
REMARK   84  A    between atoms: _217  and  _220
REMARK   85  A    between atoms: _220  and  _221
REMARK   86  A    between atoms: _226  and  _228
REMARK   87  A    between atoms: _228  and  _229
REMARK   88  A    between atoms: _228  and  _231
REMARK   89  A    between atoms: _231  and  _232
REMARK   90  A    between atoms: _237  and  _239
REMARK   91  A    between atoms: _239  and  _240
REMARK   92  A    between atoms: _239  and  _242
REMARK   93  A    between atoms: _242  and  _243
REMARK   94  A    between atoms: _243  and  _244
REMARK   95  A    between atoms: _246  and  _248
REMARK   96  A    between atoms: _248  and  _249
REMARK   97  A    between atoms: _248  and  _251
REMARK   98  A    between atoms: _251  and  _252
REMARK   99  A    between atoms: _257  and  _258
REMARK  100  A    between atoms: _260  and  _262
REMARK  101  A    between atoms: _262  and  _263
REMARK  102  A    between atoms: _262  and  _265
REMARK  103  A    between atoms: _265  and  _266
REMARK  104  A    between atoms: _269  and  _271
REMARK  105  A    between atoms: _271  and  _272
REMARK  106  A    between atoms: _271  and  _274
REMARK  107  A    between atoms: _274  and  _275
REMARK  108  A    between atoms: _275  and  _496
REMARK  109  A    between atoms: _276  and  _278
REMARK  110  A    between atoms: _278  and  _279
REMARK  111  A    between atoms: _278  and  _281
REMARK  112  A    between atoms: _281  and  _282
REMARK  113  A    between atoms: _285  and  _287
REMARK  114  A    between atoms: _287  and  _288
REMARK  115  A    between atoms: _287  and  _290
REMARK  116  A    between atoms: _290  and  _291
REMARK  117  A    between atoms: _296  and  _297
REMARK  118  A    between atoms: _299  and  _301
REMARK  119  A    between atoms: _301  and  _302
REMARK  120  A    between atoms: _301  and  _304
REMARK  121  A    between atoms: _304  and  _305
REMARK  122  A    between atoms: _310  and  _311
REMARK  123  A    between atoms: _313  and  _315
REMARK  124  A    between atoms: _315  and  _316
REMARK  125  A    between atoms: _315  and  _318
REMARK  126  A    between atoms: _318  and  _319
REMARK  127  A    between atoms: _319  and  _320
REMARK  128  A    between atoms: _323  and  _325
REMARK  129  A    between atoms: _325  and  _326
REMARK  130  A    between atoms: _325  and  _328
REMARK  131  A    between atoms: _328  and  _329
REMARK  132  A    between atoms: _329  and  _330
REMARK  133  A    between atoms: _330  and  _331
REMARK  134  A    between atoms: _331  and  _332
REMARK  135  A    between atoms: _336  and  _338
REMARK  136  A    between atoms: _338  and  _339
REMARK  137  A    between atoms: _338  and  _341
REMARK  138  A    between atoms: _341  and  _342
REMARK  139  A    between atoms: _347  and  _348
REMARK  140  A    between atoms: _350  and  _352
REMARK  141  A    between atoms: _352  and  _353
REMARK  142  A    between atoms: _352  and  _355
REMARK  143  A    between atoms: _355  and  _356
REMARK  144  A    between atoms: _361  and  _363
REMARK  145  A    between atoms: _363  and  _364
REMARK  146  A    between atoms: _363  and  _366
REMARK  147  A    between atoms: _366  and  _367
REMARK  148  A    between atoms: _370  and  _372
REMARK  149  A    between atoms: _372  and  _373
REMARK  150  A    between atoms: _372  and  _375
REMARK  151  A    between atoms: _375  and  _376
REMARK  152  A    between atoms: _381  and  _383
REMARK  153  A    between atoms: _383  and  _384
REMARK  154  A    between atoms: _383  and  _386
REMARK  155  A    between atoms: _386  and  _387
REMARK  156  A    between atoms: _397  and  _399
REMARK  157  A    between atoms: _399  and  _400
REMARK  158  A    between atoms: _399  and  _402
REMARK  159  A    between atoms: _402  and  _403
REMARK  160  A    between atoms: _409  and  _411
REMARK  161  A    between atoms: _411  and  _412
REMARK  162  A    between atoms: _411  and  _414
REMARK  163  A    between atoms: _414  and  _415
REMARK  164  A    between atoms: _418  and  _420
REMARK  165  A    between atoms: _420  and  _421
REMARK  166  A    between atoms: _420  and  _423
REMARK  167  A    between atoms: _423  and  _424
REMARK  168  A    between atoms: _424  and  _425
REMARK  169  A    between atoms: _425  and  _426
REMARK  170  A    between atoms: _435  and  _437
REMARK  171  A    between atoms: _437  and  _438
REMARK  172  A    between atoms: _437  and  _440
REMARK  173  A    between atoms: _440  and  _441
REMARK  174  A    between atoms: _446  and  _448
REMARK  175  A    between atoms: _448  and  _449
REMARK  176  A    between atoms: _448  and  _451
REMARK  177  A    between atoms: _451  and  _452
REMARK  178  A    between atoms: _452  and  _453
REMARK  179  A    between atoms: _453  and  _454
REMARK  180  A    between atoms: _463  and  _465
REMARK  181  A    between atoms: _465  and  _466
REMARK  182  A    between atoms: _469  and  _471
REMARK  183  A    between atoms: _471  and  _472
REMARK  184  A    between atoms: _474  and  _476
REMARK  185  A    between atoms: _476  and  _477
REMARK  186  A    between atoms: _476  and  _479
REMARK  187  A    between atoms: _479  and  _480
REMARK  188  A    between atoms: _490  and  _492
REMARK  189  A    between atoms: _492  and  _493
REMARK  190  A    between atoms: _492  and  _495
REMARK  191  A    between atoms: _495  and  _496
REMARK  192  A    between atoms: _497  and  _499
REMARK  193  A    between atoms: _499  and  _500
REMARK  194  A    between atoms: _503  and  _505
REMARK  195  A    between atoms: _505  and  _506
REMARK  196  A    between atoms: _505  and  _508
REMARK  197  A    between atoms: _508  and  _509
REMARK  198  A    between atoms: _512  and  _514
REMARK  199  A    between atoms: _514  and  _515
REMARK  200  A    between atoms: _514  and  _517
REMARK  201  A    between atoms: _517  and  _518
REMARK  202  A    between atoms: _523  and  _524
REMARK  203  A    between atoms: _526  and  _528
REMARK  204  A    between atoms: _528  and  _529
REMARK  205  A    between atoms: _528  and  _531
REMARK  206  A    between atoms: _531  and  _532
REMARK  207  A    between atoms: _534  and  _536
REMARK  208  A    between atoms: _536  and  _537
REMARK  209  A    between atoms: _536  and  _539
REMARK  210  A    between atoms: _539  and  _540
REMARK  211  A    between atoms: _546  and  _548
REMARK  212  A    between atoms: _548  and  _549
REMARK  213  A    between atoms: _548  and  _551
REMARK  214  A    between atoms: _551  and  _552
REMARK  215  A    between atoms: _555  and  _557
REMARK  216  A    between atoms: _557  and  _558
REMARK  217  A    between atoms: _557  and  _560
REMARK  218  A    between atoms: _560  and  _561
REMARK  219  A    between atoms: _563  and  _565
REMARK  220  A    between atoms: _565  and  _566
REMARK  221  A    between atoms: _565  and  _568
REMARK  222  A    between atoms: _568  and  _569
REMARK  223  A    between atoms: _574  and  _576
REMARK  224  A    between atoms: _576  and  _577
REMARK  225  A    between atoms: _576  and  _579
REMARK  226  A    between atoms: _579  and  _580
REMARK  227  A    between atoms: _585  and  _587
REMARK  228  A    between atoms: _587  and  _588
REMARK  229  A    between atoms: _587  and  _590
REMARK  230  A    between atoms: _590  and  _591
REMARK  231  A    between atoms: _594  and  _596
REMARK  232  A    between atoms: _596  and  _597
REMARK  233  A    between atoms: _600  and  _602
REMARK  234  A    between atoms: _602  and  _603
REMARK  235  A    between atoms: _602  and  _605
REMARK  236  A    between atoms: _605  and  _606
REMARK  237  A    between atoms: _611  and  _612
REMARK  238  A    between atoms: _614  and  _616
REMARK  239  A    between atoms: _616  and  _617
REMARK  240  A    between atoms: _616  and  _619
REMARK  241  A    between atoms: _619  and  _620
REMARK  242  A    between atoms: _625  and  _626
REMARK  243  A    between atoms: _628  and  _630
REMARK  244  A    between atoms: _630  and  _631
REMARK  245  A    between atoms: _630  and  _633
REMARK  246  A    between atoms: _636  and  _638
REMARK  247  A    between atoms: _638  and  _639
REMARK  248  A    between atoms: _638  and  _641
REMARK  249  A    between atoms: _641  and  _642
REMARK  250  A    between atoms: _647  and  _649
REMARK  251  A    between atoms: _649  and  _650
REMARK  252  A    between atoms: _653  and  _655
REMARK  253  A    between atoms: _655  and  _656
REMARK  254  A    between atoms: _655  and  _658
REMARK  255  A    between atoms: _658  and  _659
REMARK  256  A    between atoms: _659  and  _660
REMARK  257  A    between atoms: _660  and  _661
REMARK  258  A    between atoms: _670  and  _672
REMARK  259  A    between atoms: _672  and  _673
REMARK  260  A    between atoms: _672  and  _675
REMARK  261  A    between atoms: _675  and  _676
REMARK  262  A    between atoms: _679  and  _681
REMARK  263  A    between atoms: _681  and  _682
REMARK  264  A    between atoms: _681  and  _684
REMARK  265  A    between atoms: _684  and  _685
REMARK  266  A    between atoms: _688  and  _690
REMARK  267  A    between atoms: _690  and  _691
REMARK  268  A    between atoms: _690  and  _693
REMARK  269  A    between atoms: _693  and  _694
REMARK                            x       y       z     vdW  Elec       q    Type
REMARK                         _______ _______ _______ _____ _____    ______ ____
ROOT
ATOM      1  C   VAL A   4       2.270  20.381   9.147  0.00  0.00    +0.244 C 
ATOM      2  N   PRO A   5       1.657  21.568   9.211  0.00  0.00    -0.272 N 
ATOM      3  CD  PRO A   5       1.071  22.201  10.404  0.00  0.00    +0.094 C 
ATOM      4  CG  PRO A   5       0.074  23.200   9.791  0.00  0.00    +0.024 C 
ATOM      5  CB  PRO A   5       0.708  23.603   8.476  0.00  0.00    +0.031 C 
ATOM      6  CA  PRO A   5       1.331  22.295   7.999  0.00  0.00    +0.152 C 
ATOM      7  O   VAL A   4       2.593  19.879   8.036  0.00  0.00    -0.273 OA
ENDROOT
BRANCH   6   8
ATOM      8  C   PRO A   5       2.620  22.582   7.234  0.00  0.00    +0.241 C 
ATOM      9  N   GLU A   6       3.646  22.961   7.985  0.00  0.00    -0.297 N 
ATOM     10  H   GLU A   6       3.554  23.021   9.019  0.00  0.00    +0.150 HD
ATOM     11  O   PRO A   5       2.681  22.555   5.996  0.00  0.00    -0.273 OA
BRANCH   9  12
ATOM     12  CA  GLU A   6       4.920  23.295   7.321  0.00  0.00    +0.149 C 
BRANCH  12  13
ATOM     13  C   GLU A   6       5.480  22.073   6.612  0.00  0.00    +0.241 C 
ATOM     14  N   SER A   7       5.456  20.934   7.321  0.00  0.00    -0.295 N 
ATOM     15  H   SER A   7       5.000  20.922   8.256  0.00  0.00    +0.150 HD
ATOM     16  O   GLU A   6       5.987  22.208   5.494  0.00  0.00    -0.273 OA
BRANCH  14  17
ATOM     17  CA  SER A   7       6.062  19.708   6.799  0.00  0.00    +0.178 C 
BRANCH  17  18
ATOM     18  C   SER A   7       5.264  19.186   5.627  0.00  0.00    +0.243 C 
ATOM     19  N   ASN A   8       3.942  19.423   5.642  0.00  0.00    -0.298 N 
ATOM     20  H   ASN A   8       3.508  19.904   6.455  0.00  0.00    +0.150 HD
ATOM     21  O   SER A   7       5.821  18.601   4.704  0.00  0.00    -0.273 OA
BRANCH  19  22
ATOM     22  CA  ASN A   8       3.113  19.001   4.508  0.00  0.00    +0.146 C 
BRANCH  22  23
ATOM     23  C   ASN A   8       3.593  19.607   3.182  0.00  0.00    +0.227 C 
ATOM     24  O   ASN A   8       3.651  18.930   2.145  0.00  0.00    -0.286 OA
ENDBRANCH  22  23
BRANCH  22  25
ATOM     25  CB  ASN A   8       1.659  19.501   4.729  0.00  0.00    +0.112 C 
BRANCH  25  26
ATOM     26  CG  ASN A   8       0.893  18.610   5.692  0.00  0.00    +0.222 C 
ATOM     27  ND2 ASN A   8      -0.235  19.120   6.194  0.00  0.00    -0.329 N 
ATOM     28 HD21 ASN A   8      -0.836  18.542   6.816  0.00  0.00    +0.145 HD
ATOM     29 HD22 ASN A   8      -0.513  20.095   5.963  0.00  0.00    +0.145 HD
ATOM     30  OD1 ASN A   8       1.250  17.458   5.946  0.00  0.00    -0.275 OA
ENDBRANCH  25  26
ENDBRANCH  22  25
ENDBRANCH  19  22
ENDBRANCH  17  18
BRANCH  17  31
ATOM     31  CB  SER A   7       6.124  18.657   7.929  0.00  0.00    +0.166 C 
BRANCH  31  32
ATOM     32  OG  SER A   7       7.007  19.199   8.925  0.00  0.00    -0.380 OA
ATOM     33  H   SER A   7       6.643  20.059   9.255  0.00  0.00    +0.211 HD
ENDBRANCH  31  32
ENDBRANCH  17  31
ENDBRANCH  14  17
ENDBRANCH  12  13
BRANCH  12  34
ATOM     34  CB  GLU A   6       5.978  23.783   8.350  0.00  0.00    +0.041 C 
BRANCH  34  35
ATOM     35  CG  GLU A   6       5.608  25.151   8.902  0.00  0.00    +0.116 C 
BRANCH  35  36
ATOM     36  CD  GLU A   6       4.446  25.152   9.879  0.00  0.00    +0.365 C 
ATOM     37  OE2 GLU A   6       4.112  24.102  10.448  0.00  0.00    -0.246 OA
ATOM     38  OE1 GLU A   6       3.821  26.218  10.074  0.00  0.00    -0.246 OA
ENDBRANCH  35  36
ENDBRANCH  34  35
ENDBRANCH  12  34
ENDBRANCH   9  12
ENDBRANCH   6   8
BRANCH   1  39
ATOM     39  CA  VAL A   4       2.569  19.633  10.419  0.00  0.00    +0.149 C 
BRANCH  39  41
ATOM     40  C   GLY A   3       4.405  21.056  11.232  0.00  0.00    +0.243 C 
ATOM     41  N   VAL A   4       3.222  20.465  11.437  0.00  0.00    -0.297 N 
ATOM     42  H   VAL A   4       2.747  20.600  12.352  0.00  0.00    +0.150 HD
ATOM     43  O   GLY A   3       5.100  20.906  10.225  0.00  0.00    -0.273 OA
BRANCH  40  44
ATOM     44  CA  GLY A   3       4.862  21.881  12.440  0.00  0.00    +0.176 C 
BRANCH  44  47
ATOM     45  C   GLU A   2       7.127  22.086  13.234  0.00  0.00    +0.245 C 
ATOM     46  O   GLU A   2       6.903  21.257  14.123  0.00  0.00    -0.273 OA
ATOM     47  N   GLY A   3       6.237  22.416  12.298  0.00  0.00    -0.295 N 
ATOM     48  H   GLY A   3       6.498  23.026  11.497  0.00  0.00    +0.150 HD
BRANCH  45  49
ATOM     49  CA  GLU A   2       8.480  22.745  13.234  0.00  0.00    +0.172 C 
BRANCH  49  51
ATOM     50  C   ILE A   1       9.790  23.923  11.610  0.00  0.00    +0.239 C 
ATOM     51  N   GLU A   2       8.579  23.801  12.205  0.00  0.00    -0.294 N 
ATOM     52  H   GLU A   2       7.774  24.409  11.955  0.00  0.00    +0.150 HD
ATOM     53  O   ILE A   1      10.764  23.213  11.848  0.00  0.00    -0.274 OA
BRANCH  50  54
ATOM     54  CA  ILE A   1       9.886  24.987  10.529  0.00  0.00    +0.145 C 
BRANCH  54  55
ATOM     55  N   ILE A   1      11.285  25.422  10.297  0.00  0.00    -0.238 NA
ATOM     56  H   ILE A   1      12.000  24.753   9.948  0.00  0.00    +0.142 HD
ENDBRANCH  54  55
BRANCH  54  57
ATOM     57  CB  ILE A   1       9.299  24.400   9.241  0.00  0.00    +0.025 C 
ATOM     58  CG2 ILE A   1       9.188  25.496   8.155  0.00  0.00    +0.002 C 
BRANCH  57  59
ATOM     59  CG1 ILE A   1      10.184  23.255   8.671  0.00  0.00    +0.002 C 
ATOM     60  CD1 ILE A   1       9.454  22.522   7.532  0.00  0.00    +0.000 C 
ENDBRANCH  57  59
ENDBRANCH  54  57
ENDBRANCH  50  54
ENDBRANCH  49  51
BRANCH  49  61
ATOM     61  CB  GLU A   2       8.631  23.528  14.585  0.00  0.00    +0.009 C 
ATOM     62  CG  GLU A   2       9.326  22.765  15.695  0.00  0.00    +0.084 C 
BRANCH  62  63
ATOM     63  CD  GLU A   2       9.266  23.365  17.078  0.00  0.00    +0.388 C 
ATOM     64  OE2 GLU A   2       9.559  22.681  18.129  0.00  0.00    -0.241 OA
ATOM     65  OE1 GLU A   2       8.825  24.554  17.202  0.00  0.00    -0.241 OA
ENDBRANCH  62  63
ENDBRANCH  49  61
ENDBRANCH  45  49
ENDBRANCH  44  47
ENDBRANCH  40  44
ENDBRANCH  39  41
BRANCH  39  66
ATOM     66  CB  VAL A   4       1.317  18.919  10.995  0.00  0.00    +0.027 C 
ATOM     67  CG2 VAL A   4       1.826  17.936  12.072  0.00  0.00    +0.002 C 
ATOM     68  CG1 VAL A   4       0.561  18.141   9.916  0.00  0.00    +0.002 C 
ENDBRANCH  39  66
ENDBRANCH   1  39
TORSDOF 27
REMARK  Name = ../refined-set-2016/1b3f/1b3f_pocket.pdb
REMARK  269 active torsions:
REMARK  status: ('A' for Active; 'I' for Inactive)
REMARK    1  A    between atoms: _1  and  _3
REMARK    2  A    between atoms: _3  and  _4
REMARK    3  A    between atoms: _3  and  _6
REMARK    4  A    between atoms: _6  and  _7
REMARK    5  A    between atoms: _12  and  _14
REMARK    6  A    between atoms: _14  and  _15
REMARK    7  A    between atoms: _17  and  _19
REMARK    8  A    between atoms: _19  and  _20
REMARK    9  A    between atoms: _19  and  _22
REMARK   10  A    between atoms: _22  and  _23
REMARK   11  A    between atoms: _25  and  _27
REMARK   12  A    between atoms: _27  and  _28
REMARK   13  A    between atoms: _27  and  _30
REMARK   14  A    between atoms: _30  and  _31
REMARK   15  A    between atoms: _31  and  _32
REMARK   16  A    between atoms: _37  and  _39
REMARK   17  A    between atoms: _39  and  _40
REMARK   18  A    between atoms: _39  and  _42
REMARK   19  A    between atoms: _42  and  _43
REMARK   20  A    between atoms: _46  and  _48
REMARK   21  A    between atoms: _48  and  _49
REMARK   22  A    between atoms: _48  and  _51
REMARK   23  A    between atoms: _52  and  _53
REMARK   24  A    between atoms: _56  and  _58
REMARK   25  A    between atoms: _58  and  _59
REMARK   26  A    between atoms: _61  and  _63
REMARK   27  A    between atoms: _63  and  _64
REMARK   28  A    between atoms: _63  and  _66
REMARK   29  A    between atoms: _70  and  _71
REMARK   30  A    between atoms: _76  and  _78
REMARK   31  A    between atoms: _78  and  _79
REMARK   32  A    between atoms: _78  and  _81
REMARK   33  A    between atoms: _81  and  _82
REMARK   34  A    between atoms: _82  and  _83
REMARK   35  A    between atoms: _86  and  _88
REMARK   36  A    between atoms: _88  and  _89
REMARK   37  A    between atoms: _88  and  _91
REMARK   38  A    between atoms: _91  and  _92
REMARK   39  A    between atoms: _94  and  _96
REMARK   40  A    between atoms: _96  and  _97
REMARK   41  A    between atoms: _96  and  _99
REMARK   42  A    between atoms: _99  and  _100
REMARK   43  A    between atoms: _105  and  _107
REMARK   44  A    between atoms: _107  and  _108
REMARK   45  A    between atoms: _107  and  _110
REMARK   46  A    between atoms: _110  and  _111
REMARK   47  A    between atoms: _111  and  _112
REMARK   48  A    between atoms: _112  and  _113
REMARK   49  A    between atoms: _123  and  _124
REMARK   50  A    between atoms: _129  and  _131
REMARK   51  A    between atoms: _131  and  _132
REMARK   52  A    between atoms: _131  and  _134
REMARK   53  A    between atoms: _134  and  _135
REMARK   54  A    between atoms: _140  and  _141
REMARK   55  A    between atoms: _143  and  _145
REMARK   56  A    between atoms: _145  and  _146
REMARK   57  A    between atoms: _145  and  _148
REMARK   58  A    between atoms: _148  and  _149
REMARK   59  A    between atoms: _154  and  _155
REMARK   60  A    between atoms: _157  and  _159
REMARK   61  A    between atoms: _159  and  _160
REMARK   62  A    between atoms: _159  and  _162
REMARK   63  A    between atoms: _165  and  _167
REMARK   64  A    between atoms: _167  and  _168
REMARK   65  A    between atoms: _167  and  _170
REMARK   66  A    between atoms: _170  and  _171
REMARK   67  A    between atoms: _177  and  _178
REMARK   68  A    between atoms: _183  and  _185
REMARK   69  A    between atoms: _185  and  _186
REMARK   70  A    between atoms: _185  and  _188
REMARK   71  A    between atoms: _188  and  _189
REMARK   72  A    between atoms: _191  and  _193
REMARK   73  A    between atoms: _193  and  _194
REMARK   74  A    between atoms: _193  and  _196
REMARK   75  A    between atoms: _196  and  _197
REMARK   76  A    between atoms: _197  and  _198
REMARK   77  A    between atoms: _201  and  _203
REMARK   78  A    between atoms: _203  and  _204
REMARK   79  A    between atoms: _203  and  _206
REMARK   80  A    between atoms: _206  and  _207
REMARK   81  A    between atoms: _212  and  _213
REMARK   82  A    between atoms: _215  and  _217
REMARK   83  A    between atoms: _217  and  _218
REMARK   84  A    between atoms: _217  and  _220
REMARK   85  A    between atoms: _220  and  _221
REMARK   86  A    between atoms: _226  and  _228
REMARK   87  A    between atoms: _228  and  _229
REMARK   88  A    between atoms: _228  and  _231
REMARK   89  A    between atoms: _231  and  _232
REMARK   90  A    between atoms: _237  and  _239
REMARK   91  A    between atoms: _239  and  _240
REMARK   92  A    between atoms: _239  and  _242
REMARK   93  A    between atoms: _242  and  _243
REMARK   94  A    between atoms: _243  and  _244
REMARK   95  A    between atoms: _246  and  _248
REMARK   96  A    between atoms: _248  and  _249
REMARK   97  A    between atoms: _248  and  _251
REMARK   98  A    between atoms: _251  and  _252
REMARK   99  A    between atoms: _257  and  _258
REMARK  100  A    between atoms: _260  and  _262
REMARK  101  A    between atoms: _262  and  _263
REMARK  102  A    between atoms: _262  and  _265
REMARK  103  A    between atoms: _265  and  _266
REMARK  104  A    between atoms: _269  and  _271
REMARK  105  A    between atoms: _271  and  _272
REMARK  106  A    between atoms: _271  and  _274
REMARK  107  A    between atoms: _274  and  _275
REMARK  108  A    between atoms: _275  and  _496
REMARK  109  A    between atoms: _276  and  _278
REMARK  110  A    between atoms: _278  and  _279
REMARK  111  A    between atoms: _278  and  _281
REMARK  112  A    between atoms: _281  and  _282
REMARK  113  A    between atoms: _285  and  _287
REMARK  114  A    between atoms: _287  and  _288
REMARK  115  A    between atoms: _287  and  _290
REMARK  116  A    between atoms: _290  and  _291
REMARK  117  A    between atoms: _296  and  _297
REMARK  118  A    between atoms: _299  and  _301
REMARK  119  A    between atoms: _301  and  _302
REMARK  120  A    between atoms: _301  and  _304
REMARK  121  A    between atoms: _304  and  _305
REMARK  122  A    between atoms: _310  and  _311
REMARK  123  A    between atoms: _313  and  _315
REMARK  124  A    between atoms: _315  and  _316
REMARK  125  A    between atoms: _315  and  _318
REMARK  126  A    between atoms: _318  and  _319
REMARK  127  A    between atoms: _319  and  _320
REMARK  128  A    between atoms: _323  and  _325
REMARK  129  A    between atoms: _325  and  _326
REMARK  130  A    between atoms: _325  and  _328
REMARK  131  A    between atoms: _328  and  _329
REMARK  132  A    between atoms: _329  and  _330
REMARK  133  A    between atoms: _330  and  _331
REMARK  134  A    between atoms: _331  and  _332
REMARK  135  A    between atoms: _336  and  _338
REMARK  136  A    between atoms: _338  and  _339
REMARK  137  A    between atoms: _338  and  _341
REMARK  138  A    between atoms: _341  and  _342
REMARK  139  A    between atoms: _347  and  _348
REMARK  140  A    between atoms: _350  and  _352
REMARK  141  A    between atoms: _352  and  _353
REMARK  142  A    between atoms: _352  and  _355
REMARK  143  A    between atoms: _355  and  _356
REMARK  144  A    between atoms: _361  and  _363
REMARK  145  A    between atoms: _363  and  _364
REMARK  146  A    between atoms: _363  and  _366
REMARK  147  A    between atoms: _366  and  _367
REMARK  148  A    between atoms: _370  and  _372
REMARK  149  A    between atoms: _372  and  _373
REMARK  150  A    between atoms: _372  and  _375
REMARK  151  A    between atoms: _375  and  _376
REMARK  152  A    between atoms: _381  and  _383
REMARK  153  A    between atoms: _383  and  _384
REMARK  154  A    between atoms: _383  and  _386
REMARK  155  A    between atoms: _386  and  _387
REMARK  156  A    between atoms: _397  and  _399
REMARK  157  A    between atoms: _399  and  _400
REMARK  158  A    between atoms: _399  and  _402
REMARK  159  A    between atoms: _402  and  _403
REMARK  160  A    between atoms: _409  and  _411
REMARK  161  A    between atoms: _411  and  _412
REMARK  162  A    between atoms: _411  and  _414
REMARK  163  A    between atoms: _414  and  _415
REMARK  164  A    between atoms: _418  and  _420
REMARK  165  A    between atoms: _420  and  _421
REMARK  166  A    between atoms: _420  and  _423
REMARK  167  A    between atoms: _423  and  _424
REMARK  168  A    between atoms: _424  and  _425
REMARK  169  A    between atoms: _425  and  _426
REMARK  170  A    between atoms: _435  and  _437
REMARK  171  A    between atoms: _437  and  _438
REMARK  172  A    between atoms: _437  and  _440
REMARK  173  A    between atoms: _440  and  _441
REMARK  174  A    between atoms: _446  and  _448
REMARK  175  A    between atoms: _448  and  _449
REMARK  176  A    between atoms: _448  and  _451
REMARK  177  A    between atoms: _451  and  _452
REMARK  178  A    between atoms: _452  and  _453
REMARK  179  A    between atoms: _453  and  _454
REMARK  180  A    between atoms: _463  and  _465
REMARK  181  A    between atoms: _465  and  _466
REMARK  182  A    between atoms: _469  and  _471
REMARK  183  A    between atoms: _471  and  _472
REMARK  184  A    between atoms: _474  and  _476
REMARK  185  A    between atoms: _476  and  _477
REMARK  186  A    between atoms: _476  and  _479
REMARK  187  A    between atoms: _479  and  _480
REMARK  188  A    between atoms: _490  and  _492
REMARK  189  A    between atoms: _492  and  _493
REMARK  190  A    between atoms: _492  and  _495
REMARK  191  A    between atoms: _495  and  _496
REMARK  192  A    between atoms: _497  and  _499
REMARK  193  A    between atoms: _499  and  _500
REMARK  194  A    between atoms: _503  and  _505
REMARK  195  A    between atoms: _505  and  _506
REMARK  196  A    between atoms: _505  and  _508
REMARK  197  A    between atoms: _508  and  _509
REMARK  198  A    between atoms: _512  and  _514
REMARK  199  A    between atoms: _514  and  _515
REMARK  200  A    between atoms: _514  and  _517
REMARK  201  A    between atoms: _517  and  _518
REMARK  202  A    between atoms: _523  and  _524
REMARK  203  A    between atoms: _526  and  _528
REMARK  204  A    between atoms: _528  and  _529
REMARK  205  A    between atoms: _528  and  _531
REMARK  206  A    between atoms: _531  and  _532
REMARK  207  A    between atoms: _534  and  _536
REMARK  208  A    between atoms: _536  and  _537
REMARK  209  A    between atoms: _536  and  _539
REMARK  210  A    between atoms: _539  and  _540
REMARK  211  A    between atoms: _546  and  _548
REMARK  212  A    between atoms: _548  and  _549
REMARK  213  A    between atoms: _548  and  _551
REMARK  214  A    between atoms: _551  and  _552
REMARK  215  A    between atoms: _555  and  _557
REMARK  216  A    between atoms: _557  and  _558
REMARK  217  A    between atoms: _557  and  _560
REMARK  218  A    between atoms: _560  and  _561
REMARK  219  A    between atoms: _563  and  _565
REMARK  220  A    between atoms: _565  and  _566
REMARK  221  A    between atoms: _565  and  _568
REMARK  222  A    between atoms: _568  and  _569
REMARK  223  A    between atoms: _574  and  _576
REMARK  224  A    between atoms: _576  and  _577
REMARK  225  A    between atoms: _576  and  _579
REMARK  226  A    between atoms: _579  and  _580
REMARK  227  A    between atoms: _585  and  _587
REMARK  228  A    between atoms: _587  and  _588
REMARK  229  A    between atoms: _587  and  _590
REMARK  230  A    between atoms: _590  and  _591
REMARK  231  A    between atoms: _594  and  _596
REMARK  232  A    between atoms: _596  and  _597
REMARK  233  A    between atoms: _600  and  _602
REMARK  234  A    between atoms: _602  and  _603
REMARK  235  A    between atoms: _602  and  _605
REMARK  236  A    between atoms: _605  and  _606
REMARK  237  A    between atoms: _611  and  _612
REMARK  238  A    between atoms: _614  and  _616
REMARK  239  A    between atoms: _616  and  _617
REMARK  240  A    between atoms: _616  and  _619
REMARK  241  A    between atoms: _619  and  _620
REMARK  242  A    between atoms: _625  and  _626
REMARK  243  A    between atoms: _628  and  _630
REMARK  244  A    between atoms: _630  and  _631
REMARK  245  A    between atoms: _630  and  _633
REMARK  246  A    between atoms: _636  and  _638
REMARK  247  A    between atoms: _638  and  _639
REMARK  248  A    between atoms: _638  and  _641
REMARK  249  A    between atoms: _641  and  _642
REMARK  250  A    between atoms: _647  and  _649
REMARK  251  A    between atoms: _649  and  _650
REMARK  252  A    between atoms: _653  and  _655
REMARK  253  A    between atoms: _655  and  _656
REMARK  254  A    between atoms: _655  and  _658
REMARK  255  A    between atoms: _658  and  _659
REMARK  256  A    between atoms: _659  and  _660
REMARK  257  A    between atoms: _660  and  _661
REMARK  258  A    between atoms: _670  and  _672
REMARK  259  A    between atoms: _672  and  _673
REMARK  260  A    between atoms: _672  and  _675
REMARK  261  A    between atoms: _675  and  _676
REMARK  262  A    between atoms: _679  and  _681
REMARK  263  A    between atoms: _681  and  _682
REMARK  264  A    between atoms: _681  and  _684
REMARK  265  A    between atoms: _684  and  _685
REMARK  266  A    between atoms: _688  and  _690
REMARK  267  A    between atoms: _690  and  _691
REMARK  268  A    between atoms: _690  and  _693
REMARK  269  A    between atoms: _693  and  _694
REMARK                            x       y       z     vdW  Elec       q    Type
REMARK                         _______ _______ _______ _____ _____    ______ ____
ROOT
ATOM      1  NE  ARG A   1       4.847  14.641   3.994  0.00  0.00    -0.265 N 
ATOM      2  CZ  ARG A   1       4.319  15.277   5.038  0.00  0.00    +0.342 C 
ATOM      3  NH2 ARG A   1       5.027  15.635   6.110  0.00  0.00    -0.292 N 
ATOM      4 HH21 ARG A   1       4.563  16.130   6.898  0.00  0.00    +0.255 HD
ATOM      5 HH22 ARG A   1       6.043  15.419   6.158  0.00  0.00    +0.255 HD
ATOM      6  NH1 ARG A   1       3.004  15.538   5.022  0.00  0.00    -0.292 N 
ATOM      7 HH11 ARG A   1       2.562  16.033   5.823  0.00  0.00    +0.255 HD
ATOM      8 HH12 ARG A   1       2.426  15.245   4.209  0.00  0.00    +0.255 HD
ATOM      9  HE  ARG A   1       4.203  14.350   3.231  0.00  0.00    +0.259 HD
ENDROOT
BRANCH   1  10
ATOM     10  CD  ARG A   1       6.263  14.322   3.843  0.00  0.00    +0.174 C 
BRANCH  10  11
ATOM     11  CG  ARG A   1       7.046  15.605   3.471  0.00  0.00    +0.045 C 
BRANCH  11  12
ATOM     12  CB  ARG A   1       6.700  16.025   2.054  0.00  0.00    +0.029 C 
BRANCH  12  13
ATOM     13  CA  ARG A   1       7.620  17.141   1.496  0.00  0.00    +0.133 C 
BRANCH  13  14
ATOM     14  N   ARG A   1       7.402  18.416   2.180  0.00  0.00    -0.239 NA
ATOM     15  H   ARG A   1       6.608  18.520   2.844  0.00  0.00    +0.142 HD
ENDBRANCH  13  14
BRANCH  13  16
ATOM     16  C   ARG A   1       7.453  17.242  -0.006  0.00  0.00    +0.224 C 
ATOM     17  O   ARG A   1       8.060  16.416  -0.734  0.00  0.00    -0.287 OA
ENDBRANCH  13  16
ENDBRANCH  12  13
ENDBRANCH  11  12
ENDBRANCH  10  11
ENDBRANCH   1  10
TORSDOF 6
REMARK  Name = ../refined-set-2016/1b3f/1b3f_pocket.pdb
REMARK  269 active torsions:
REMARK  status: ('A' for Active; 'I' for Inactive)
REMARK    1  A    between atoms: _1  and  _3
REMARK    2  A    between atoms: _3  and  _4
REMARK    3  A    between atoms: _3  and  _6
REMARK    4  A    between atoms: _6  and  _7
REMARK    5  A    between atoms: _12  and  _14
REMARK    6  A    between atoms: _14  and  _15
REMARK    7  A    between atoms: _17  and  _19
REMARK    8  A    between atoms: _19  and  _20
REMARK    9  A    between atoms: _19  and  _22
REMARK   10  A    between atoms: _22  and  _23
REMARK   11  A    between atoms: _25  and  _27
REMARK   12  A    between atoms: _27  and  _28
REMARK   13  A    between atoms: _27  and  _30
REMARK   14  A    between atoms: _30  and  _31
REMARK   15  A    between atoms: _31  and  _32
REMARK   16  A    between atoms: _37  and  _39
REMARK   17  A    between atoms: _39  and  _40
REMARK   18  A    between atoms: _39  and  _42
REMARK   19  A    between atoms: _42  and  _43
REMARK   20  A    between atoms: _46  and  _48
REMARK   21  A    between atoms: _48  and  _49
REMARK   22  A    between atoms: _48  and  _51
REMARK   23  A    between atoms: _52  and  _53
REMARK   24  A    between atoms: _56  and  _58
REMARK   25  A    between atoms: _58  and  _59
REMARK   26  A    between atoms: _61  and  _63
REMARK   27  A    between atoms: _63  and  _64
REMARK   28  A    between atoms: _63  and  _66
REMARK   29  A    between atoms: _70  and  _71
REMARK   30  A    between atoms: _76  and  _78
REMARK   31  A    between atoms: _78  and  _79
REMARK   32  A    between atoms: _78  and  _81
REMARK   33  A    between atoms: _81  and  _82
REMARK   34  A    between atoms: _82  and  _83
REMARK   35  A    between atoms: _86  and  _88
REMARK   36  A    between atoms: _88  and  _89
REMARK   37  A    between atoms: _88  and  _91
REMARK   38  A    between atoms: _91  and  _92
REMARK   39  A    between atoms: _94  and  _96
REMARK   40  A    between atoms: _96  and  _97
REMARK   41  A    between atoms: _96  and  _99
REMARK   42  A    between atoms: _99  and  _100
REMARK   43  A    between atoms: _105  and  _107
REMARK   44  A    between atoms: _107  and  _108
REMARK   45  A    between atoms: _107  and  _110
REMARK   46  A    between atoms: _110  and  _111
REMARK   47  A    between atoms: _111  and  _112
REMARK   48  A    between atoms: _112  and  _113
REMARK   49  A    between atoms: _123  and  _124
REMARK   50  A    between atoms: _129  and  _131
REMARK   51  A    between atoms: _131  and  _132
REMARK   52  A    between atoms: _131  and  _134
REMARK   53  A    between atoms: _134  and  _135
REMARK   54  A    between atoms: _140  and  _141
REMARK   55  A    between atoms: _143  and  _145
REMARK   56  A    between atoms: _145  and  _146
REMARK   57  A    between atoms: _145  and  _148
REMARK   58  A    between atoms: _148  and  _149
REMARK   59  A    between atoms: _154  and  _155
REMARK   60  A    between atoms: _157  and  _159
REMARK   61  A    between atoms: _159  and  _160
REMARK   62  A    between atoms: _159  and  _162
REMARK   63  A    between atoms: _165  and  _167
REMARK   64  A    between atoms: _167  and  _168
REMARK   65  A    between atoms: _167  and  _170
REMARK   66  A    between atoms: _170  and  _171
REMARK   67  A    between atoms: _177  and  _178
REMARK   68  A    between atoms: _183  and  _185
REMARK   69  A    between atoms: _185  and  _186
REMARK   70  A    between atoms: _185  and  _188
REMARK   71  A    between atoms: _188  and  _189
REMARK   72  A    between atoms: _191  and  _193
REMARK   73  A    between atoms: _193  and  _194
REMARK   74  A    between atoms: _193  and  _196
REMARK   75  A    between atoms: _196  and  _197
REMARK   76  A    between atoms: _197  and  _198
REMARK   77  A    between atoms: _201  and  _203
REMARK   78  A    between atoms: _203  and  _204
REMARK   79  A    between atoms: _203  and  _206
REMARK   80  A    between atoms: _206  and  _207
REMARK   81  A    between atoms: _212  and  _213
REMARK   82  A    between atoms: _215  and  _217
REMARK   83  A    between atoms: _217  and  _218
REMARK   84  A    between atoms: _217  and  _220
REMARK   85  A    between atoms: _220  and  _221
REMARK   86  A    between atoms: _226  and  _228
REMARK   87  A    between atoms: _228  and  _229
REMARK   88  A    between atoms: _228  and  _231
REMARK   89  A    between atoms: _231  and  _232
REMARK   90  A    between atoms: _237  and  _239
REMARK   91  A    between atoms: _239  and  _240
REMARK   92  A    between atoms: _239  and  _242
REMARK   93  A    between atoms: _242  and  _243
REMARK   94  A    between atoms: _243  and  _244
REMARK   95  A    between atoms: _246  and  _248
REMARK   96  A    between atoms: _248  and  _249
REMARK   97  A    between atoms: _248  and  _251
REMARK   98  A    between atoms: _251  and  _252
REMARK   99  A    between atoms: _257  and  _258
REMARK  100  A    between atoms: _260  and  _262
REMARK  101  A    between atoms: _262  and  _263
REMARK  102  A    between atoms: _262  and  _265
REMARK  103  A    between atoms: _265  and  _266
REMARK  104  A    between atoms: _269  and  _271
REMARK  105  A    between atoms: _271  and  _272
REMARK  106  A    between atoms: _271  and  _274
REMARK  107  A    between atoms: _274  and  _275
REMARK  108  A    between atoms: _275  and  _496
REMARK  109  A    between atoms: _276  and  _278
REMARK  110  A    between atoms: _278  and  _279
REMARK  111  A    between atoms: _278  and  _281
REMARK  112  A    between atoms: _281  and  _282
REMARK  113  A    between atoms: _285  and  _287
REMARK  114  A    between atoms: _287  and  _288
REMARK  115  A    between atoms: _287  and  _290
REMARK  116  A    between atoms: _290  and  _291
REMARK  117  A    between atoms: _296  and  _297
REMARK  118  A    between atoms: _299  and  _301
REMARK  119  A    between atoms: _301  and  _302
REMARK  120  A    between atoms: _301  and  _304
REMARK  121  A    between atoms: _304  and  _305
REMARK  122  A    between atoms: _310  and  _311
REMARK  123  A    between atoms: _313  and  _315
REMARK  124  A    between atoms: _315  and  _316
REMARK  125  A    between atoms: _315  and  _318
REMARK  126  A    between atoms: _318  and  _319
REMARK  127  A    between atoms: _319  and  _320
REMARK  128  A    between atoms: _323  and  _325
REMARK  129  A    between atoms: _325  and  _326
REMARK  130  A    between atoms: _325  and  _328
REMARK  131  A    between atoms: _328  and  _329
REMARK  132  A    between atoms: _329  and  _330
REMARK  133  A    between atoms: _330  and  _331
REMARK  134  A    between atoms: _331  and  _332
REMARK  135  A    between atoms: _336  and  _338
REMARK  136  A    between atoms: _338  and  _339
REMARK  137  A    between atoms: _338  and  _341
REMARK  138  A    between atoms: _341  and  _342
REMARK  139  A    between atoms: _347  and  _348
REMARK  140  A    between atoms: _350  and  _352
REMARK  141  A    between atoms: _352  and  _353
REMARK  142  A    between atoms: _352  and  _355
REMARK  143  A    between atoms: _355  and  _356
REMARK  144  A    between atoms: _361  and  _363
REMARK  145  A    between atoms: _363  and  _364
REMARK  146  A    between atoms: _363  and  _366
REMARK  147  A    between atoms: _366  and  _367
REMARK  148  A    between atoms: _370  and  _372
REMARK  149  A    between atoms: _372  and  _373
REMARK  150  A    between atoms: _372  and  _375
REMARK  151  A    between atoms: _375  and  _376
REMARK  152  A    between atoms: _381  and  _383
REMARK  153  A    between atoms: _383  and  _384
REMARK  154  A    between atoms: _383  and  _386
REMARK  155  A    between atoms: _386  and  _387
REMARK  156  A    between atoms: _397  and  _399
REMARK  157  A    between atoms: _399  and  _400
REMARK  158  A    between atoms: _399  and  _402
REMARK  159  A    between atoms: _402  and  _403
REMARK  160  A    between atoms: _409  and  _411
REMARK  161  A    between atoms: _411  and  _412
REMARK  162  A    between atoms: _411  and  _414
REMARK  163  A    between atoms: _414  and  _415
REMARK  164  A    between atoms: _418  and  _420
REMARK  165  A    between atoms: _420  and  _421
REMARK  166  A    between atoms: _420  and  _423
REMARK  167  A    between atoms: _423  and  _424
REMARK  168  A    between atoms: _424  and  _425
REMARK  169  A    between atoms: _425  and  _426
REMARK  170  A    between atoms: _435  and  _437
REMARK  171  A    between atoms: _437  and  _438
REMARK  172  A    between atoms: _437  and  _440
REMARK  173  A    between atoms: _440  and  _441
REMARK  174  A    between atoms: _446  and  _448
REMARK  175  A    between atoms: _448  and  _449
REMARK  176  A    between atoms: _448  and  _451
REMARK  177  A    between atoms: _451  and  _452
REMARK  178  A    between atoms: _452  and  _453
REMARK  179  A    between atoms: _453  and  _454
REMARK  180  A    between atoms: _463  and  _465
REMARK  181  A    between atoms: _465  and  _466
REMARK  182  A    between atoms: _469  and  _471
REMARK  183  A    between atoms: _471  and  _472
REMARK  184  A    between atoms: _474  and  _476
REMARK  185  A    between atoms: _476  and  _477
REMARK  186  A    between atoms: _476  and  _479
REMARK  187  A    between atoms: _479  and  _480
REMARK  188  A    between atoms: _490  and  _492
REMARK  189  A    between atoms: _492  and  _493
REMARK  190  A    between atoms: _492  and  _495
REMARK  191  A    between atoms: _495  and  _496
REMARK  192  A    between atoms: _497  and  _499
REMARK  193  A    between atoms: _499  and  _500
REMARK  194  A    between atoms: _503  and  _505
REMARK  195  A    between atoms: _505  and  _506
REMARK  196  A    between atoms: _505  and  _508
REMARK  197  A    between atoms: _508  and  _509
REMARK  198  A    between atoms: _512  and  _514
REMARK  199  A    between atoms: _514  and  _515
REMARK  200  A    between atoms: _514  and  _517
REMARK  201  A    between atoms: _517  and  _518
REMARK  202  A    between atoms: _523  and  _524
REMARK  203  A    between atoms: _526  and  _528
REMARK  204  A    between atoms: _528  and  _529
REMARK  205  A    between atoms: _528  and  _531
REMARK  206  A    between atoms: _531  and  _532
REMARK  207  A    between atoms: _534  and  _536
REMARK  208  A    between atoms: _536  and  _537
REMARK  209  A    between atoms: _536  and  _539
REMARK  210  A    between atoms: _539  and  _540
REMARK  211  A    between atoms: _546  and  _548
REMARK  212  A    between atoms: _548  and  _549
REMARK  213  A    between atoms: _548  and  _551
REMARK  214  A    between atoms: _551  and  _552
REMARK  215  A    between atoms: _555  and  _557
REMARK  216  A    between atoms: _557  and  _558
REMARK  217  A    between atoms: _557  and  _560
REMARK  218  A    between atoms: _560  and  _561
REMARK  219  A    between atoms: _563  and  _565
REMARK  220  A    between atoms: _565  and  _566
REMARK  221  A    between atoms: _565  and  _568
REMARK  222  A    between atoms: _568  and  _569
REMARK  223  A    between atoms: _574  and  _576
REMARK  224  A    between atoms: _576  and  _577
REMARK  225  A    between atoms: _576  and  _579
REMARK  226  A    between atoms: _579  and  _580
REMARK  227  A    between atoms: _585  and  _587
REMARK  228  A    between atoms: _587  and  _588
REMARK  229  A    between atoms: _587  and  _590
REMARK  230  A    between atoms: _590  and  _591
REMARK  231  A    between atoms: _594  and  _596
REMARK  232  A    between atoms: _596  and  _597
REMARK  233  A    between atoms: _600  and  _602
REMARK  234  A    between atoms: _602  and  _603
REMARK  235  A    between atoms: _602  and  _605
REMARK  236  A    between atoms: _605  and  _606
REMARK  237  A    between atoms: _611  and  _612
REMARK  238  A    between atoms: _614  and  _616
REMARK  239  A    between atoms: _616  and  _617
REMARK  240  A    between atoms: _616  and  _619
REMARK  241  A    between atoms: _619  and  _620
REMARK  242  A    between atoms: _625  and  _626
REMARK  243  A    between atoms: _628  and  _630
REMARK  244  A    between atoms: _630  and  _631
REMARK  245  A    between atoms: _630  and  _633
REMARK  246  A    between atoms: _636  and  _638
REMARK  247  A    between atoms: _638  and  _639
REMARK  248  A    between atoms: _638  and  _641
REMARK  249  A    between atoms: _641  and  _642
REMARK  250  A    between atoms: _647  and  _649
REMARK  251  A    between atoms: _649  and  _650
REMARK  252  A    between atoms: _653  and  _655
REMARK  253  A    between atoms: _655  and  _656
REMARK  254  A    between atoms: _655  and  _658
REMARK  255  A    between atoms: _658  and  _659
REMARK  256  A    between atoms: _659  and  _660
REMARK  257  A    between atoms: _660  and  _661
REMARK  258  A    between atoms: _670  and  _672
REMARK  259  A    between atoms: _672  and  _673
REMARK  260  A    between atoms: _672  and  _675
REMARK  261  A    between atoms: _675  and  _676
REMARK  262  A    between atoms: _679  and  _681
REMARK  263  A    between atoms: _681  and  _682
REMARK  264  A    between atoms: _681  and  _684
REMARK  265  A    between atoms: _684  and  _685
REMARK  266  A    between atoms: _688  and  _690
REMARK  267  A    between atoms: _690  and  _691
REMARK  268  A    between atoms: _690  and  _693
REMARK  269  A    between atoms: _693  and  _694
REMARK                            x       y       z     vdW  Elec       q    Type
REMARK                         _______ _______ _______ _____ _____    ______ ____
ROOT
ATOM      1  CA  TYR A   2      14.940  21.512  14.956  0.00  0.00    +0.141 C 
ENDROOT
BRANCH   1   4
ATOM      2  C   PRO A   1      14.004  23.391  16.198  0.00  0.00    +0.239 C 
ATOM      3  O   PRO A   1      13.676  22.656  17.156  0.00  0.00    -0.274 OA
ATOM      4  N   TYR A   2      14.563  22.900  15.077  0.00  0.00    -0.298 N 
ATOM      5  H   TYR A   2      14.728  23.540  14.274  0.00  0.00    +0.150 HD
BRANCH   2   7
ATOM      6  N   PRO A   1      14.367  25.576  15.150  0.00  0.00    -0.210 NA
ATOM      7  CA  PRO A   1      13.663  24.872  16.222  0.00  0.00    +0.149 C 
ATOM      8  CB  PRO A   1      12.184  25.088  15.861  0.00  0.00    +0.028 C 
ATOM      9  CG  PRO A   1      12.149  25.276  14.351  0.00  0.00    +0.021 C 
ATOM     10  CD  PRO A   1      13.474  26.044  14.080  0.00  0.00    +0.089 C 
ENDBRANCH   2   7
ENDBRANCH   1   4
BRANCH   1  11
ATOM     11  C   TYR A   2      16.453  21.313  14.980  0.00  0.00    +0.227 C 
ATOM     12  O   TYR A   2      16.956  20.263  14.597  0.00  0.00    -0.286 OA
ENDBRANCH   1  11
BRANCH   1  13
ATOM     13  CB  TYR A   2      14.281  20.843  13.756  0.00  0.00    +0.054 C 
BRANCH  13  14
ATOM     14  CG  TYR A   2      13.021  20.062  14.044  0.00  0.00    -0.020 A 
ATOM     15  CD2 TYR A   2      13.051  18.869  14.740  0.00  0.00    -0.001 A 
ATOM     16  CE2 TYR A   2      11.882  18.147  15.013  0.00  0.00    +0.036 A 
ATOM     17  CZ  TYR A   2      10.682  18.627  14.555  0.00  0.00    +0.134 A 
ATOM     18  CE1 TYR A   2      10.609  19.838  13.901  0.00  0.00    +0.036 A 
ATOM     19  CD1 TYR A   2      11.773  20.550  13.648  0.00  0.00    -0.001 A 
BRANCH  17  20
ATOM     20  OH  TYR A   2       9.507  17.931  14.753  0.00  0.00    -0.506 OA
ATOM     21  HH  TYR A   2       9.702  17.086  15.230  0.00  0.00    +0.292 HD
ENDBRANCH  17  20
ENDBRANCH  13  14
ENDBRANCH   1  13
TORSDOF 6
REMARK  Name = ../refined-set-2016/1b3f/1b3f_pocket.pdb
REMARK  269 active torsions:
REMARK  status: ('A' for Active; 'I' for Inactive)
REMARK    1  A    between atoms: _1  and  _3
REMARK    2  A    between atoms: _3  and  _4
REMARK    3  A    between atoms: _3  and  _6
REMARK    4  A    between atoms: _6  and  _7
REMARK    5  A    between atoms: _12  and  _14
REMARK    6  A    between atoms: _14  and  _15
REMARK    7  A    between atoms: _17  and  _19
REMARK    8  A    between atoms: _19  and  _20
REMARK    9  A    between atoms: _19  and  _22
REMARK   10  A    between atoms: _22  and  _23
REMARK   11  A    between atoms: _25  and  _27
REMARK   12  A    between atoms: _27  and  _28
REMARK   13  A    between atoms: _27  and  _30
REMARK   14  A    between atoms: _30  and  _31
REMARK   15  A    between atoms: _31  and  _32
REMARK   16  A    between atoms: _37  and  _39
REMARK   17  A    between atoms: _39  and  _40
REMARK   18  A    between atoms: _39  and  _42
REMARK   19  A    between atoms: _42  and  _43
REMARK   20  A    between atoms: _46  and  _48
REMARK   21  A    between atoms: _48  and  _49
REMARK   22  A    between atoms: _48  and  _51
REMARK   23  A    between atoms: _52  and  _53
REMARK   24  A    between atoms: _56  and  _58
REMARK   25  A    between atoms: _58  and  _59
REMARK   26  A    between atoms: _61  and  _63
REMARK   27  A    between atoms: _63  and  _64
REMARK   28  A    between atoms: _63  and  _66
REMARK   29  A    between atoms: _70  and  _71
REMARK   30  A    between atoms: _76  and  _78
REMARK   31  A    between atoms: _78  and  _79
REMARK   32  A    between atoms: _78  and  _81
REMARK   33  A    between atoms: _81  and  _82
REMARK   34  A    between atoms: _82  and  _83
REMARK   35  A    between atoms: _86  and  _88
REMARK   36  A    between atoms: _88  and  _89
REMARK   37  A    between atoms: _88  and  _91
REMARK   38  A    between atoms: _91  and  _92
REMARK   39  A    between atoms: _94  and  _96
REMARK   40  A    between atoms: _96  and  _97
REMARK   41  A    between atoms: _96  and  _99
REMARK   42  A    between atoms: _99  and  _100
REMARK   43  A    between atoms: _105  and  _107
REMARK   44  A    between atoms: _107  and  _108
REMARK   45  A    between atoms: _107  and  _110
REMARK   46  A    between atoms: _110  and  _111
REMARK   47  A    between atoms: _111  and  _112
REMARK   48  A    between atoms: _112  and  _113
REMARK   49  A    between atoms: _123  and  _124
REMARK   50  A    between atoms: _129  and  _131
REMARK   51  A    between atoms: _131  and  _132
REMARK   52  A    between atoms: _131  and  _134
REMARK   53  A    between atoms: _134  and  _135
REMARK   54  A    between atoms: _140  and  _141
REMARK   55  A    between atoms: _143  and  _145
REMARK   56  A    between atoms: _145  and  _146
REMARK   57  A    between atoms: _145  and  _148
REMARK   58  A    between atoms: _148  and  _149
REMARK   59  A    between atoms: _154  and  _155
REMARK   60  A    between atoms: _157  and  _159
REMARK   61  A    between atoms: _159  and  _160
REMARK   62  A    between atoms: _159  and  _162
REMARK   63  A    between atoms: _165  and  _167
REMARK   64  A    between atoms: _167  and  _168
REMARK   65  A    between atoms: _167  and  _170
REMARK   66  A    between atoms: _170  and  _171
REMARK   67  A    between atoms: _177  and  _178
REMARK   68  A    between atoms: _183  and  _185
REMARK   69  A    between atoms: _185  and  _186
REMARK   70  A    between atoms: _185  and  _188
REMARK   71  A    between atoms: _188  and  _189
REMARK   72  A    between atoms: _191  and  _193
REMARK   73  A    between atoms: _193  and  _194
REMARK   74  A    between atoms: _193  and  _196
REMARK   75  A    between atoms: _196  and  _197
REMARK   76  A    between atoms: _197  and  _198
REMARK   77  A    between atoms: _201  and  _203
REMARK   78  A    between atoms: _203  and  _204
REMARK   79  A    between atoms: _203  and  _206
REMARK   80  A    between atoms: _206  and  _207
REMARK   81  A    between atoms: _212  and  _213
REMARK   82  A    between atoms: _215  and  _217
REMARK   83  A    between atoms: _217  and  _218
REMARK   84  A    between atoms: _217  and  _220
REMARK   85  A    between atoms: _220  and  _221
REMARK   86  A    between atoms: _226  and  _228
REMARK   87  A    between atoms: _228  and  _229
REMARK   88  A    between atoms: _228  and  _231
REMARK   89  A    between atoms: _231  and  _232
REMARK   90  A    between atoms: _237  and  _239
REMARK   91  A    between atoms: _239  and  _240
REMARK   92  A    between atoms: _239  and  _242
REMARK   93  A    between atoms: _242  and  _243
REMARK   94  A    between atoms: _243  and  _244
REMARK   95  A    between atoms: _246  and  _248
REMARK   96  A    between atoms: _248  and  _249
REMARK   97  A    between atoms: _248  and  _251
REMARK   98  A    between atoms: _251  and  _252
REMARK   99  A    between atoms: _257  and  _258
REMARK  100  A    between atoms: _260  and  _262
REMARK  101  A    between atoms: _262  and  _263
REMARK  102  A    between atoms: _262  and  _265
REMARK  103  A    between atoms: _265  and  _266
REMARK  104  A    between atoms: _269  and  _271
REMARK  105  A    between atoms: _271  and  _272
REMARK  106  A    between atoms: _271  and  _274
REMARK  107  A    between atoms: _274  and  _275
REMARK  108  A    between atoms: _275  and  _496
REMARK  109  A    between atoms: _276  and  _278
REMARK  110  A    between atoms: _278  and  _279
REMARK  111  A    between atoms: _278  and  _281
REMARK  112  A    between atoms: _281  and  _282
REMARK  113  A    between atoms: _285  and  _287
REMARK  114  A    between atoms: _287  and  _288
REMARK  115  A    between atoms: _287  and  _290
REMARK  116  A    between atoms: _290  and  _291
REMARK  117  A    between atoms: _296  and  _297
REMARK  118  A    between atoms: _299  and  _301
REMARK  119  A    between atoms: _301  and  _302
REMARK  120  A    between atoms: _301  and  _304
REMARK  121  A    between atoms: _304  and  _305
REMARK  122  A    between atoms: _310  and  _311
REMARK  123  A    between atoms: _313  and  _315
REMARK  124  A    between atoms: _315  and  _316
REMARK  125  A    between atoms: _315  and  _318
REMARK  126  A    between atoms: _318  and  _319
REMARK  127  A    between atoms: _319  and  _320
REMARK  128  A    between atoms: _323  and  _325
REMARK  129  A    between atoms: _325  and  _326
REMARK  130  A    between atoms: _325  and  _328
REMARK  131  A    between atoms: _328  and  _329
REMARK  132  A    between atoms: _329  and  _330
REMARK  133  A    between atoms: _330  and  _331
REMARK  134  A    between atoms: _331  and  _332
REMARK  135  A    between atoms: _336  and  _338
REMARK  136  A    between atoms: _338  and  _339
REMARK  137  A    between atoms: _338  and  _341
REMARK  138  A    between atoms: _341  and  _342
REMARK  139  A    between atoms: _347  and  _348
REMARK  140  A    between atoms: _350  and  _352
REMARK  141  A    between atoms: _352  and  _353
REMARK  142  A    between atoms: _352  and  _355
REMARK  143  A    between atoms: _355  and  _356
REMARK  144  A    between atoms: _361  and  _363
REMARK  145  A    between atoms: _363  and  _364
REMARK  146  A    between atoms: _363  and  _366
REMARK  147  A    between atoms: _366  and  _367
REMARK  148  A    between atoms: _370  and  _372
REMARK  149  A    between atoms: _372  and  _373
REMARK  150  A    between atoms: _372  and  _375
REMARK  151  A    between atoms: _375  and  _376
REMARK  152  A    between atoms: _381  and  _383
REMARK  153  A    between atoms: _383  and  _384
REMARK  154  A    between atoms: _383  and  _386
REMARK  155  A    between atoms: _386  and  _387
REMARK  156  A    between atoms: _397  and  _399
REMARK  157  A    between atoms: _399  and  _400
REMARK  158  A    between atoms: _399  and  _402
REMARK  159  A    between atoms: _402  and  _403
REMARK  160  A    between atoms: _409  and  _411
REMARK  161  A    between atoms: _411  and  _412
REMARK  162  A    between atoms: _411  and  _414
REMARK  163  A    between atoms: _414  and  _415
REMARK  164  A    between atoms: _418  and  _420
REMARK  165  A    between atoms: _420  and  _421
REMARK  166  A    between atoms: _420  and  _423
REMARK  167  A    between atoms: _423  and  _424
REMARK  168  A    between atoms: _424  and  _425
REMARK  169  A    between atoms: _425  and  _426
REMARK  170  A    between atoms: _435  and  _437
REMARK  171  A    between atoms: _437  and  _438
REMARK  172  A    between atoms: _437  and  _440
REMARK  173  A    between atoms: _440  and  _441
REMARK  174  A    between atoms: _446  and  _448
REMARK  175  A    between atoms: _448  and  _449
REMARK  176  A    between atoms: _448  and  _451
REMARK  177  A    between atoms: _451  and  _452
REMARK  178  A    between atoms: _452  and  _453
REMARK  179  A    between atoms: _453  and  _454
REMARK  180  A    between atoms: _463  and  _465
REMARK  181  A    between atoms: _465  and  _466
REMARK  182  A    between atoms: _469  and  _471
REMARK  183  A    between atoms: _471  and  _472
REMARK  184  A    between atoms: _474  and  _476
REMARK  185  A    between atoms: _476  and  _477
REMARK  186  A    between atoms: _476  and  _479
REMARK  187  A    between atoms: _479  and  _480
REMARK  188  A    between atoms: _490  and  _492
REMARK  189  A    between atoms: _492  and  _493
REMARK  190  A    between atoms: _492  and  _495
REMARK  191  A    between atoms: _495  and  _496
REMARK  192  A    between atoms: _497  and  _499
REMARK  193  A    between atoms: _499  and  _500
REMARK  194  A    between atoms: _503  and  _505
REMARK  195  A    between atoms: _505  and  _506
REMARK  196  A    between atoms: _505  and  _508
REMARK  197  A    between atoms: _508  and  _509
REMARK  198  A    between atoms: _512  and  _514
REMARK  199  A    between atoms: _514  and  _515
REMARK  200  A    between atoms: _514  and  _517
REMARK  201  A    between atoms: _517  and  _518
REMARK  202  A    between atoms: _523  and  _524
REMARK  203  A    between atoms: _526  and  _528
REMARK  204  A    between atoms: _528  and  _529
REMARK  205  A    between atoms: _528  and  _531
REMARK  206  A    between atoms: _531  and  _532
REMARK  207  A    between atoms: _534  and  _536
REMARK  208  A    between atoms: _536  and  _537
REMARK  209  A    between atoms: _536  and  _539
REMARK  210  A    between atoms: _539  and  _540
REMARK  211  A    between atoms: _546  and  _548
REMARK  212  A    between atoms: _548  and  _549
REMARK  213  A    between atoms: _548  and  _551
REMARK  214  A    between atoms: _551  and  _552
REMARK  215  A    between atoms: _555  and  _557
REMARK  216  A    between atoms: _557  and  _558
REMARK  217  A    between atoms: _557  and  _560
REMARK  218  A    between atoms: _560  and  _561
REMARK  219  A    between atoms: _563  and  _565
REMARK  220  A    between atoms: _565  and  _566
REMARK  221  A    between atoms: _565  and  _568
REMARK  222  A    between atoms: _568  and  _569
REMARK  223  A    between atoms: _574  and  _576
REMARK  224  A    between atoms: _576  and  _577
REMARK  225  A    between atoms: _576  and  _579
REMARK  226  A    between atoms: _579  and  _580
REMARK  227  A    between atoms: _585  and  _587
REMARK  228  A    between atoms: _587  and  _588
REMARK  229  A    between atoms: _587  and  _590
REMARK  230  A    between atoms: _590  and  _591
REMARK  231  A    between atoms: _594  and  _596
REMARK  232  A    between atoms: _596  and  _597
REMARK  233  A    between atoms: _600  and  _602
REMARK  234  A    between atoms: _602  and  _603
REMARK  235  A    between atoms: _602  and  _605
REMARK  236  A    between atoms: _605  and  _606
REMARK  237  A    between atoms: _611  and  _612
REMARK  238  A    between atoms: _614  and  _616
REMARK  239  A    between atoms: _616  and  _617
REMARK  240  A    between atoms: _616  and  _619
REMARK  241  A    between atoms: _619  and  _620
REMARK  242  A    between atoms: _625  and  _626
REMARK  243  A    between atoms: _628  and  _630
REMARK  244  A    between atoms: _630  and  _631
REMARK  245  A    between atoms: _630  and  _633
REMARK  246  A    between atoms: _636  and  _638
REMARK  247  A    between atoms: _638  and  _639
REMARK  248  A    between atoms: _638  and  _641
REMARK  249  A    between atoms: _641  and  _642
REMARK  250  A    between atoms: _647  and  _649
REMARK  251  A    between atoms: _649  and  _650
REMARK  252  A    between atoms: _653  and  _655
REMARK  253  A    between atoms: _655  and  _656
REMARK  254  A    between atoms: _655  and  _658
REMARK  255  A    between atoms: _658  and  _659
REMARK  256  A    between atoms: _659  and  _660
REMARK  257  A    between atoms: _660  and  _661
REMARK  258  A    between atoms: _670  and  _672
REMARK  259  A    between atoms: _672  and  _673
REMARK  260  A    between atoms: _672  and  _675
REMARK  261  A    between atoms: _675  and  _676
REMARK  262  A    between atoms: _679  and  _681
REMARK  263  A    between atoms: _681  and  _682
REMARK  264  A    between atoms: _681  and  _684
REMARK  265  A    between atoms: _684  and  _685
REMARK  266  A    between atoms: _688  and  _690
REMARK  267  A    between atoms: _690  and  _691
REMARK  268  A    between atoms: _690  and  _693
REMARK  269  A    between atoms: _693  and  _694
REMARK                            x       y       z     vdW  Elec       q    Type
REMARK                         _______ _______ _______ _____ _____    ______ ____
ROOT
ATOM      1  CG  TYR A   1      15.749  15.908  13.678  0.00  0.00    -0.020 A 
ATOM      2  CD2 TYR A   1      14.617  15.451  14.348  0.00  0.00    -0.001 A 
ATOM      3  CE2 TYR A   1      13.848  14.426  13.853  0.00  0.00    +0.036 A 
ATOM      4  CZ  TYR A   1      14.226  13.817  12.670  0.00  0.00    +0.134 A 
ATOM      5  CE1 TYR A   1      15.339  14.247  11.979  0.00  0.00    +0.036 A 
ATOM      6  CD1 TYR A   1      16.098  15.302  12.488  0.00  0.00    -0.001 A 
ENDROOT
BRANCH   4   7
ATOM      7  OH  TYR A   1      13.429  12.798  12.188  0.00  0.00    -0.506 OA
ATOM      8  HH  TYR A   1      13.970  11.974  12.093  0.00  0.00    +0.292 HD
ENDBRANCH   4   7
BRANCH   1   9
ATOM      9  CB  TYR A   1      16.564  17.062  14.264  0.00  0.00    +0.051 C 
BRANCH   9  10
ATOM     10  CA  TYR A   1      17.233  16.698  15.581  0.00  0.00    +0.137 C 
BRANCH  10  11
ATOM     11  N   TYR A   1      17.456  17.916  16.335  0.00  0.00    -0.239 NA
ATOM     12  H   TYR A   1      17.188  18.829  15.916  0.00  0.00    +0.142 HD
ENDBRANCH  10  11
BRANCH  10  13
ATOM     13  C   TYR A   1      18.585  15.999  15.336  0.00  0.00    +0.224 C 
ATOM     14  O   TYR A   1      18.647  14.784  15.292  0.00  0.00    -0.287 OA
ENDBRANCH  10  13
ENDBRANCH   9  10
ENDBRANCH   1   9
TORSDOF 5
REMARK  Name = ../refined-set-2016/1b3f/1b3f_pocket.pdb
REMARK  269 active torsions:
REMARK  status: ('A' for Active; 'I' for Inactive)
REMARK    1  A    between atoms: _1  and  _3
REMARK    2  A    between atoms: _3  and  _4
REMARK    3  A    between atoms: _3  and  _6
REMARK    4  A    between atoms: _6  and  _7
REMARK    5  A    between atoms: _12  and  _14
REMARK    6  A    between atoms: _14  and  _15
REMARK    7  A    between atoms: _17  and  _19
REMARK    8  A    between atoms: _19  and  _20
REMARK    9  A    between atoms: _19  and  _22
REMARK   10  A    between atoms: _22  and  _23
REMARK   11  A    between atoms: _25  and  _27
REMARK   12  A    between atoms: _27  and  _28
REMARK   13  A    between atoms: _27  and  _30
REMARK   14  A    between atoms: _30  and  _31
REMARK   15  A    between atoms: _31  and  _32
REMARK   16  A    between atoms: _37  and  _39
REMARK   17  A    between atoms: _39  and  _40
REMARK   18  A    between atoms: _39  and  _42
REMARK   19  A    between atoms: _42  and  _43
REMARK   20  A    between atoms: _46  and  _48
REMARK   21  A    between atoms: _48  and  _49
REMARK   22  A    between atoms: _48  and  _51
REMARK   23  A    between atoms: _52  and  _53
REMARK   24  A    between atoms: _56  and  _58
REMARK   25  A    between atoms: _58  and  _59
REMARK   26  A    between atoms: _61  and  _63
REMARK   27  A    between atoms: _63  and  _64
REMARK   28  A    between atoms: _63  and  _66
REMARK   29  A    between atoms: _70  and  _71
REMARK   30  A    between atoms: _76  and  _78
REMARK   31  A    between atoms: _78  and  _79
REMARK   32  A    between atoms: _78  and  _81
REMARK   33  A    between atoms: _81  and  _82
REMARK   34  A    between atoms: _82  and  _83
REMARK   35  A    between atoms: _86  and  _88
REMARK   36  A    between atoms: _88  and  _89
REMARK   37  A    between atoms: _88  and  _91
REMARK   38  A    between atoms: _91  and  _92
REMARK   39  A    between atoms: _94  and  _96
REMARK   40  A    between atoms: _96  and  _97
REMARK   41  A    between atoms: _96  and  _99
REMARK   42  A    between atoms: _99  and  _100
REMARK   43  A    between atoms: _105  and  _107
REMARK   44  A    between atoms: _107  and  _108
REMARK   45  A    between atoms: _107  and  _110
REMARK   46  A    between atoms: _110  and  _111
REMARK   47  A    between atoms: _111  and  _112
REMARK   48  A    between atoms: _112  and  _113
REMARK   49  A    between atoms: _123  and  _124
REMARK   50  A    between atoms: _129  and  _131
REMARK   51  A    between atoms: _131  and  _132
REMARK   52  A    between atoms: _131  and  _134
REMARK   53  A    between atoms: _134  and  _135
REMARK   54  A    between atoms: _140  and  _141
REMARK   55  A    between atoms: _143  and  _145
REMARK   56  A    between atoms: _145  and  _146
REMARK   57  A    between atoms: _145  and  _148
REMARK   58  A    between atoms: _148  and  _149
REMARK   59  A    between atoms: _154  and  _155
REMARK   60  A    between atoms: _157  and  _159
REMARK   61  A    between atoms: _159  and  _160
REMARK   62  A    between atoms: _159  and  _162
REMARK   63  A    between atoms: _165  and  _167
REMARK   64  A    between atoms: _167  and  _168
REMARK   65  A    between atoms: _167  and  _170
REMARK   66  A    between atoms: _170  and  _171
REMARK   67  A    between atoms: _177  and  _178
REMARK   68  A    between atoms: _183  and  _185
REMARK   69  A    between atoms: _185  and  _186
REMARK   70  A    between atoms: _185  and  _188
REMARK   71  A    between atoms: _188  and  _189
REMARK   72  A    between atoms: _191  and  _193
REMARK   73  A    between atoms: _193  and  _194
REMARK   74  A    between atoms: _193  and  _196
REMARK   75  A    between atoms: _196  and  _197
REMARK   76  A    between atoms: _197  and  _198
REMARK   77  A    between atoms: _201  and  _203
REMARK   78  A    between atoms: _203  and  _204
REMARK   79  A    between atoms: _203  and  _206
REMARK   80  A    between atoms: _206  and  _207
REMARK   81  A    between atoms: _212  and  _213
REMARK   82  A    between atoms: _215  and  _217
REMARK   83  A    between atoms: _217  and  _218
REMARK   84  A    between atoms: _217  and  _220
REMARK   85  A    between atoms: _220  and  _221
REMARK   86  A    between atoms: _226  and  _228
REMARK   87  A    between atoms: _228  and  _229
REMARK   88  A    between atoms: _228  and  _231
REMARK   89  A    between atoms: _231  and  _232
REMARK   90  A    between atoms: _237  and  _239
REMARK   91  A    between atoms: _239  and  _240
REMARK   92  A    between atoms: _239  and  _242
REMARK   93  A    between atoms: _242  and  _243
REMARK   94  A    between atoms: _243  and  _244
REMARK   95  A    between atoms: _246  and  _248
REMARK   96  A    between atoms: _248  and  _249
REMARK   97  A    between atoms: _248  and  _251
REMARK   98  A    between atoms: _251  and  _252
REMARK   99  A    between atoms: _257  and  _258
REMARK  100  A    between atoms: _260  and  _262
REMARK  101  A    between atoms: _262  and  _263
REMARK  102  A    between atoms: _262  and  _265
REMARK  103  A    between atoms: _265  and  _266
REMARK  104  A    between atoms: _269  and  _271
REMARK  105  A    between atoms: _271  and  _272
REMARK  106  A    between atoms: _271  and  _274
REMARK  107  A    between atoms: _274  and  _275
REMARK  108  A    between atoms: _275  and  _496
REMARK  109  A    between atoms: _276  and  _278
REMARK  110  A    between atoms: _278  and  _279
REMARK  111  A    between atoms: _278  and  _281
REMARK  112  A    between atoms: _281  and  _282
REMARK  113  A    between atoms: _285  and  _287
REMARK  114  A    between atoms: _287  and  _288
REMARK  115  A    between atoms: _287  and  _290
REMARK  116  A    between atoms: _290  and  _291
REMARK  117  A    between atoms: _296  and  _297
REMARK  118  A    between atoms: _299  and  _301
REMARK  119  A    between atoms: _301  and  _302
REMARK  120  A    between atoms: _301  and  _304
REMARK  121  A    between atoms: _304  and  _305
REMARK  122  A    between atoms: _310  and  _311
REMARK  123  A    between atoms: _313  and  _315
REMARK  124  A    between atoms: _315  and  _316
REMARK  125  A    between atoms: _315  and  _318
REMARK  126  A    between atoms: _318  and  _319
REMARK  127  A    between atoms: _319  and  _320
REMARK  128  A    between atoms: _323  and  _325
REMARK  129  A    between atoms: _325  and  _326
REMARK  130  A    between atoms: _325  and  _328
REMARK  131  A    between atoms: _328  and  _329
REMARK  132  A    between atoms: _329  and  _330
REMARK  133  A    between atoms: _330  and  _331
REMARK  134  A    between atoms: _331  and  _332
REMARK  135  A    between atoms: _336  and  _338
REMARK  136  A    between atoms: _338  and  _339
REMARK  137  A    between atoms: _338  and  _341
REMARK  138  A    between atoms: _341  and  _342
REMARK  139  A    between atoms: _347  and  _348
REMARK  140  A    between atoms: _350  and  _352
REMARK  141  A    between atoms: _352  and  _353
REMARK  142  A    between atoms: _352  and  _355
REMARK  143  A    between atoms: _355  and  _356
REMARK  144  A    between atoms: _361  and  _363
REMARK  145  A    between atoms: _363  and  _364
REMARK  146  A    between atoms: _363  and  _366
REMARK  147  A    between atoms: _366  and  _367
REMARK  148  A    between atoms: _370  and  _372
REMARK  149  A    between atoms: _372  and  _373
REMARK  150  A    between atoms: _372  and  _375
REMARK  151  A    between atoms: _375  and  _376
REMARK  152  A    between atoms: _381  and  _383
REMARK  153  A    between atoms: _383  and  _384
REMARK  154  A    between atoms: _383  and  _386
REMARK  155  A    between atoms: _386  and  _387
REMARK  156  A    between atoms: _397  and  _399
REMARK  157  A    between atoms: _399  and  _400
REMARK  158  A    between atoms: _399  and  _402
REMARK  159  A    between atoms: _402  and  _403
REMARK  160  A    between atoms: _409  and  _411
REMARK  161  A    between atoms: _411  and  _412
REMARK  162  A    between atoms: _411  and  _414
REMARK  163  A    between atoms: _414  and  _415
REMARK  164  A    between atoms: _418  and  _420
REMARK  165  A    between atoms: _420  and  _421
REMARK  166  A    between atoms: _420  and  _423
REMARK  167  A    between atoms: _423  and  _424
REMARK  168  A    between atoms: _424  and  _425
REMARK  169  A    between atoms: _425  and  _426
REMARK  170  A    between atoms: _435  and  _437
REMARK  171  A    between atoms: _437  and  _438
REMARK  172  A    between atoms: _437  and  _440
REMARK  173  A    between atoms: _440  and  _441
REMARK  174  A    between atoms: _446  and  _448
REMARK  175  A    between atoms: _448  and  _449
REMARK  176  A    between atoms: _448  and  _451
REMARK  177  A    between atoms: _451  and  _452
REMARK  178  A    between atoms: _452  and  _453
REMARK  179  A    between atoms: _453  and  _454
REMARK  180  A    between atoms: _463  and  _465
REMARK  181  A    between atoms: _465  and  _466
REMARK  182  A    between atoms: _469  and  _471
REMARK  183  A    between atoms: _471  and  _472
REMARK  184  A    between atoms: _474  and  _476
REMARK  185  A    between atoms: _476  and  _477
REMARK  186  A    between atoms: _476  and  _479
REMARK  187  A    between atoms: _479  and  _480
REMARK  188  A    between atoms: _490  and  _492
REMARK  189  A    between atoms: _492  and  _493
REMARK  190  A    between atoms: _492  and  _495
REMARK  191  A    between atoms: _495  and  _496
REMARK  192  A    between atoms: _497  and  _499
REMARK  193  A    between atoms: _499  and  _500
REMARK  194  A    between atoms: _503  and  _505
REMARK  195  A    between atoms: _505  and  _506
REMARK  196  A    between atoms: _505  and  _508
REMARK  197  A    between atoms: _508  and  _509
REMARK  198  A    between atoms: _512  and  _514
REMARK  199  A    between atoms: _514  and  _515
REMARK  200  A    between atoms: _514  and  _517
REMARK  201  A    between atoms: _517  and  _518
REMARK  202  A    between atoms: _523  and  _524
REMARK  203  A    between atoms: _526  and  _528
REMARK  204  A    between atoms: _528  and  _529
REMARK  205  A    between atoms: _528  and  _531
REMARK  206  A    between atoms: _531  and  _532
REMARK  207  A    between atoms: _534  and  _536
REMARK  208  A    between atoms: _536  and  _537
REMARK  209  A    between atoms: _536  and  _539
REMARK  210  A    between atoms: _539  and  _540
REMARK  211  A    between atoms: _546  and  _548
REMARK  212  A    between atoms: _548  and  _549
REMARK  213  A    between atoms: _548  and  _551
REMARK  214  A    between atoms: _551  and  _552
REMARK  215  A    between atoms: _555  and  _557
REMARK  216  A    between atoms: _557  and  _558
REMARK  217  A    between atoms: _557  and  _560
REMARK  218  A    between atoms: _560  and  _561
REMARK  219  A    between atoms: _563  and  _565
REMARK  220  A    between atoms: _565  and  _566
REMARK  221  A    between atoms: _565  and  _568
REMARK  222  A    between atoms: _568  and  _569
REMARK  223  A    between atoms: _574  and  _576
REMARK  224  A    between atoms: _576  and  _577
REMARK  225  A    between atoms: _576  and  _579
REMARK  226  A    between atoms: _579  and  _580
REMARK  227  A    between atoms: _585  and  _587
REMARK  228  A    between atoms: _587  and  _588
REMARK  229  A    between atoms: _587  and  _590
REMARK  230  A    between atoms: _590  and  _591
REMARK  231  A    between atoms: _594  and  _596
REMARK  232  A    between atoms: _596  and  _597
REMARK  233  A    between atoms: _600  and  _602
REMARK  234  A    between atoms: _602  and  _603
REMARK  235  A    between atoms: _602  and  _605
REMARK  236  A    between atoms: _605  and  _606
REMARK  237  A    between atoms: _611  and  _612
REMARK  238  A    between atoms: _614  and  _616
REMARK  239  A    between atoms: _616  and  _617
REMARK  240  A    between atoms: _616  and  _619
REMARK  241  A    between atoms: _619  and  _620
REMARK  242  A    between atoms: _625  and  _626
REMARK  243  A    between atoms: _628  and  _630
REMARK  244  A    between atoms: _630  and  _631
REMARK  245  A    between atoms: _630  and  _633
REMARK  246  A    between atoms: _636  and  _638
REMARK  247  A    between atoms: _638  and  _639
REMARK  248  A    between atoms: _638  and  _641
REMARK  249  A    between atoms: _641  and  _642
REMARK  250  A    between atoms: _647  and  _649
REMARK  251  A    between atoms: _649  and  _650
REMARK  252  A    between atoms: _653  and  _655
REMARK  253  A    between atoms: _655  and  _656
REMARK  254  A    between atoms: _655  and  _658
REMARK  255  A    between atoms: _658  and  _659
REMARK  256  A    between atoms: _659  and  _660
REMARK  257  A    between atoms: _660  and  _661
REMARK  258  A    between atoms: _670  and  _672
REMARK  259  A    between atoms: _672  and  _673
REMARK  260  A    between atoms: _672  and  _675
REMARK  261  A    between atoms: _675  and  _676
REMARK  262  A    between atoms: _679  and  _681
REMARK  263  A    between atoms: _681  and  _682
REMARK  264  A    between atoms: _681  and  _684
REMARK  265  A    between atoms: _684  and  _685
REMARK  266  A    between atoms: _688  and  _690
REMARK  267  A    between atoms: _690  and  _691
REMARK  268  A    between atoms: _690  and  _693
REMARK  269  A    between atoms: _693  and  _694
REMARK                            x       y       z     vdW  Elec       q    Type
REMARK                         _______ _______ _______ _____ _____    ______ ____
ROOT
ATOM      1  CA  HIS A   2      11.995  14.715   8.204  0.00  0.00    +0.155 C 
ENDROOT
BRANCH   1   2
ATOM      2  C   HIS A   2      12.535  15.932   7.514  0.00  0.00    +0.244 C 
ATOM      3  N   PRO A   3      11.771  17.019   7.453  0.00  0.00    -0.272 N 
ATOM      4  CD  PRO A   3      10.377  17.169   7.965  0.00  0.00    +0.094 C 
ATOM      5  CG  PRO A   3       9.808  18.224   6.979  0.00  0.00    +0.024 C 
ATOM      6  CB  PRO A   3      10.988  19.144   6.810  0.00  0.00    +0.031 C 
ATOM      7  CA  PRO A   3      12.160  18.192   6.679  0.00  0.00    +0.152 C 
ATOM      8  O   HIS A   2      13.687  15.911   7.029  0.00  0.00    -0.273 OA
BRANCH   7   9
ATOM      9  C   PRO A   3      13.454  18.823   7.152  0.00  0.00    +0.241 C 
ATOM     10  N   SER A   4      13.771  18.738   8.436  0.00  0.00    -0.296 N 
ATOM     11  H   SER A   4      13.169  18.194   9.087  0.00  0.00    +0.150 HD
ATOM     12  O   PRO A   3      14.205  19.331   6.292  0.00  0.00    -0.273 OA
BRANCH  10  13
ATOM     13  CA  SER A   4      14.975  19.415   8.938  0.00  0.00    +0.166 C 
BRANCH  13  14
ATOM     14  C   SER A   4      16.243  18.859   8.296  0.00  0.00    +0.229 C 
ATOM     15  O   SER A   4      17.214  19.617   8.226  0.00  0.00    -0.286 OA
ENDBRANCH  13  14
BRANCH  13  16
ATOM     16  CB  SER A   4      15.043  19.364  10.451  0.00  0.00    +0.165 C 
BRANCH  16  17
ATOM     17  OG  SER A   4      15.259  18.057  10.950  0.00  0.00    -0.380 OA
ATOM     18  H   SER A   4      14.517  17.468  10.661  0.00  0.00    +0.211 HD
ENDBRANCH  16  17
ENDBRANCH  13  16
ENDBRANCH  10  13
ENDBRANCH   7   9
ENDBRANCH   1   2
BRANCH   1  20
ATOM     19  C   VAL A   1      12.012  12.904   6.515  0.00  0.00    +0.238 C 
ATOM     20  N   HIS A   2      12.457  13.471   7.620  0.00  0.00    -0.297 N 
ATOM     21  H   HIS A   2      13.218  12.974   8.125  0.00  0.00    +0.150 HD
ATOM     22  O   VAL A   1      11.218  13.568   5.825  0.00  0.00    -0.274 OA
BRANCH  19  23
ATOM     23  CA  VAL A   1      12.489  11.522   6.098  0.00  0.00    +0.145 C 
BRANCH  23  24
ATOM     24  CB  VAL A   1      11.360  10.476   6.066  0.00  0.00    +0.025 C 
ATOM     25  CG2 VAL A   1      10.748  10.303   7.453  0.00  0.00    +0.002 C 
ATOM     26  CG1 VAL A   1      11.892   9.082   5.667  0.00  0.00    +0.002 C 
ENDBRANCH  23  24
BRANCH  23  27
ATOM     27  N   VAL A   1      13.570  11.010   6.967  0.00  0.00    -0.238 NA
ATOM     28  H   VAL A   1      13.354  10.391   7.774  0.00  0.00    +0.142 HD
ENDBRANCH  23  27
ENDBRANCH  19  23
ENDBRANCH   1  20
BRANCH   1  29
ATOM     29  CB  HIS A   2      12.561  14.656   9.647  0.00  0.00    +0.076 C 
BRANCH  29  30
ATOM     30  CG  HIS A   2      11.905  15.723  10.482  0.00  0.00    +0.082 A 
ATOM     31  CD2 HIS A   2      10.677  15.748  11.044  0.00  0.00    +0.115 A 
ATOM     32  NE2 HIS A   2      10.582  16.933  11.743  0.00  0.00    -0.221 NA
ATOM     33  CE1 HIS A   2      11.721  17.624  11.572  0.00  0.00    +0.199 A 
ATOM     34  ND1 HIS A   2      12.550  16.910  10.799  0.00  0.00    -0.227 NA
ENDBRANCH  29  30
ENDBRANCH   1  29
TORSDOF 12
REMARK  Name = ../refined-set-2016/1b3f/1b3f_pocket.pdb
REMARK  269 active torsions:
REMARK  status: ('A' for Active; 'I' for Inactive)
REMARK    1  A    between atoms: _1  and  _3
REMARK    2  A    between atoms: _3  and  _4
REMARK    3  A    between atoms: _3  and  _6
REMARK    4  A    between atoms: _6  and  _7
REMARK    5  A    between atoms: _12  and  _14
REMARK    6  A    between atoms: _14  and  _15
REMARK    7  A    between atoms: _17  and  _19
REMARK    8  A    between atoms: _19  and  _20
REMARK    9  A    between atoms: _19  and  _22
REMARK   10  A    between atoms: _22  and  _23
REMARK   11  A    between atoms: _25  and  _27
REMARK   12  A    between atoms: _27  and  _28
REMARK   13  A    between atoms: _27  and  _30
REMARK   14  A    between atoms: _30  and  _31
REMARK   15  A    between atoms: _31  and  _32
REMARK   16  A    between atoms: _37  and  _39
REMARK   17  A    between atoms: _39  and  _40
REMARK   18  A    between atoms: _39  and  _42
REMARK   19  A    between atoms: _42  and  _43
REMARK   20  A    between atoms: _46  and  _48
REMARK   21  A    between atoms: _48  and  _49
REMARK   22  A    between atoms: _48  and  _51
REMARK   23  A    between atoms: _52  and  _53
REMARK   24  A    between atoms: _56  and  _58
REMARK   25  A    between atoms: _58  and  _59
REMARK   26  A    between atoms: _61  and  _63
REMARK   27  A    between atoms: _63  and  _64
REMARK   28  A    between atoms: _63  and  _66
REMARK   29  A    between atoms: _70  and  _71
REMARK   30  A    between atoms: _76  and  _78
REMARK   31  A    between atoms: _78  and  _79
REMARK   32  A    between atoms: _78  and  _81
REMARK   33  A    between atoms: _81  and  _82
REMARK   34  A    between atoms: _82  and  _83
REMARK   35  A    between atoms: _86  and  _88
REMARK   36  A    between atoms: _88  and  _89
REMARK   37  A    between atoms: _88  and  _91
REMARK   38  A    between atoms: _91  and  _92
REMARK   39  A    between atoms: _94  and  _96
REMARK   40  A    between atoms: _96  and  _97
REMARK   41  A    between atoms: _96  and  _99
REMARK   42  A    between atoms: _99  and  _100
REMARK   43  A    between atoms: _105  and  _107
REMARK   44  A    between atoms: _107  and  _108
REMARK   45  A    between atoms: _107  and  _110
REMARK   46  A    between atoms: _110  and  _111
REMARK   47  A    between atoms: _111  and  _112
REMARK   48  A    between atoms: _112  and  _113
REMARK   49  A    between atoms: _123  and  _124
REMARK   50  A    between atoms: _129  and  _131
REMARK   51  A    between atoms: _131  and  _132
REMARK   52  A    between atoms: _131  and  _134
REMARK   53  A    between atoms: _134  and  _135
REMARK   54  A    between atoms: _140  and  _141
REMARK   55  A    between atoms: _143  and  _145
REMARK   56  A    between atoms: _145  and  _146
REMARK   57  A    between atoms: _145  and  _148
REMARK   58  A    between atoms: _148  and  _149
REMARK   59  A    between atoms: _154  and  _155
REMARK   60  A    between atoms: _157  and  _159
REMARK   61  A    between atoms: _159  and  _160
REMARK   62  A    between atoms: _159  and  _162
REMARK   63  A    between atoms: _165  and  _167
REMARK   64  A    between atoms: _167  and  _168
REMARK   65  A    between atoms: _167  and  _170
REMARK   66  A    between atoms: _170  and  _171
REMARK   67  A    between atoms: _177  and  _178
REMARK   68  A    between atoms: _183  and  _185
REMARK   69  A    between atoms: _185  and  _186
REMARK   70  A    between atoms: _185  and  _188
REMARK   71  A    between atoms: _188  and  _189
REMARK   72  A    between atoms: _191  and  _193
REMARK   73  A    between atoms: _193  and  _194
REMARK   74  A    between atoms: _193  and  _196
REMARK   75  A    between atoms: _196  and  _197
REMARK   76  A    between atoms: _197  and  _198
REMARK   77  A    between atoms: _201  and  _203
REMARK   78  A    between atoms: _203  and  _204
REMARK   79  A    between atoms: _203  and  _206
REMARK   80  A    between atoms: _206  and  _207
REMARK   81  A    between atoms: _212  and  _213
REMARK   82  A    between atoms: _215  and  _217
REMARK   83  A    between atoms: _217  and  _218
REMARK   84  A    between atoms: _217  and  _220
REMARK   85  A    between atoms: _220  and  _221
REMARK   86  A    between atoms: _226  and  _228
REMARK   87  A    between atoms: _228  and  _229
REMARK   88  A    between atoms: _228  and  _231
REMARK   89  A    between atoms: _231  and  _232
REMARK   90  A    between atoms: _237  and  _239
REMARK   91  A    between atoms: _239  and  _240
REMARK   92  A    between atoms: _239  and  _242
REMARK   93  A    between atoms: _242  and  _243
REMARK   94  A    between atoms: _243  and  _244
REMARK   95  A    between atoms: _246  and  _248
REMARK   96  A    between atoms: _248  and  _249
REMARK   97  A    between atoms: _248  and  _251
REMARK   98  A    between atoms: _251  and  _252
REMARK   99  A    between atoms: _257  and  _258
REMARK  100  A    between atoms: _260  and  _262
REMARK  101  A    between atoms: _262  and  _263
REMARK  102  A    between atoms: _262  and  _265
REMARK  103  A    between atoms: _265  and  _266
REMARK  104  A    between atoms: _269  and  _271
REMARK  105  A    between atoms: _271  and  _272
REMARK  106  A    between atoms: _271  and  _274
REMARK  107  A    between atoms: _274  and  _275
REMARK  108  A    between atoms: _275  and  _496
REMARK  109  A    between atoms: _276  and  _278
REMARK  110  A    between atoms: _278  and  _279
REMARK  111  A    between atoms: _278  and  _281
REMARK  112  A    between atoms: _281  and  _282
REMARK  113  A    between atoms: _285  and  _287
REMARK  114  A    between atoms: _287  and  _288
REMARK  115  A    between atoms: _287  and  _290
REMARK  116  A    between atoms: _290  and  _291
REMARK  117  A    between atoms: _296  and  _297
REMARK  118  A    between atoms: _299  and  _301
REMARK  119  A    between atoms: _301  and  _302
REMARK  120  A    between atoms: _301  and  _304
REMARK  121  A    between atoms: _304  and  _305
REMARK  122  A    between atoms: _310  and  _311
REMARK  123  A    between atoms: _313  and  _315
REMARK  124  A    between atoms: _315  and  _316
REMARK  125  A    between atoms: _315  and  _318
REMARK  126  A    between atoms: _318  and  _319
REMARK  127  A    between atoms: _319  and  _320
REMARK  128  A    between atoms: _323  and  _325
REMARK  129  A    between atoms: _325  and  _326
REMARK  130  A    between atoms: _325  and  _328
REMARK  131  A    between atoms: _328  and  _329
REMARK  132  A    between atoms: _329  and  _330
REMARK  133  A    between atoms: _330  and  _331
REMARK  134  A    between atoms: _331  and  _332
REMARK  135  A    between atoms: _336  and  _338
REMARK  136  A    between atoms: _338  and  _339
REMARK  137  A    between atoms: _338  and  _341
REMARK  138  A    between atoms: _341  and  _342
REMARK  139  A    between atoms: _347  and  _348
REMARK  140  A    between atoms: _350  and  _352
REMARK  141  A    between atoms: _352  and  _353
REMARK  142  A    between atoms: _352  and  _355
REMARK  143  A    between atoms: _355  and  _356
REMARK  144  A    between atoms: _361  and  _363
REMARK  145  A    between atoms: _363  and  _364
REMARK  146  A    between atoms: _363  and  _366
REMARK  147  A    between atoms: _366  and  _367
REMARK  148  A    between atoms: _370  and  _372
REMARK  149  A    between atoms: _372  and  _373
REMARK  150  A    between atoms: _372  and  _375
REMARK  151  A    between atoms: _375  and  _376
REMARK  152  A    between atoms: _381  and  _383
REMARK  153  A    between atoms: _383  and  _384
REMARK  154  A    between atoms: _383  and  _386
REMARK  155  A    between atoms: _386  and  _387
REMARK  156  A    between atoms: _397  and  _399
REMARK  157  A    between atoms: _399  and  _400
REMARK  158  A    between atoms: _399  and  _402
REMARK  159  A    between atoms: _402  and  _403
REMARK  160  A    between atoms: _409  and  _411
REMARK  161  A    between atoms: _411  and  _412
REMARK  162  A    between atoms: _411  and  _414
REMARK  163  A    between atoms: _414  and  _415
REMARK  164  A    between atoms: _418  and  _420
REMARK  165  A    between atoms: _420  and  _421
REMARK  166  A    between atoms: _420  and  _423
REMARK  167  A    between atoms: _423  and  _424
REMARK  168  A    between atoms: _424  and  _425
REMARK  169  A    between atoms: _425  and  _426
REMARK  170  A    between atoms: _435  and  _437
REMARK  171  A    between atoms: _437  and  _438
REMARK  172  A    between atoms: _437  and  _440
REMARK  173  A    between atoms: _440  and  _441
REMARK  174  A    between atoms: _446  and  _448
REMARK  175  A    between atoms: _448  and  _449
REMARK  176  A    between atoms: _448  and  _451
REMARK  177  A    between atoms: _451  and  _452
REMARK  178  A    between atoms: _452  and  _453
REMARK  179  A    between atoms: _453  and  _454
REMARK  180  A    between atoms: _463  and  _465
REMARK  181  A    between atoms: _465  and  _466
REMARK  182  A    between atoms: _469  and  _471
REMARK  183  A    between atoms: _471  and  _472
REMARK  184  A    between atoms: _474  and  _476
REMARK  185  A    between atoms: _476  and  _477
REMARK  186  A    between atoms: _476  and  _479
REMARK  187  A    between atoms: _479  and  _480
REMARK  188  A    between atoms: _490  and  _492
REMARK  189  A    between atoms: _492  and  _493
REMARK  190  A    between atoms: _492  and  _495
REMARK  191  A    between atoms: _495  and  _496
REMARK  192  A    between atoms: _497  and  _499
REMARK  193  A    between atoms: _499  and  _500
REMARK  194  A    between atoms: _503  and  _505
REMARK  195  A    between atoms: _505  and  _506
REMARK  196  A    between atoms: _505  and  _508
REMARK  197  A    between atoms: _508  and  _509
REMARK  198  A    between atoms: _512  and  _514
REMARK  199  A    between atoms: _514  and  _515
REMARK  200  A    between atoms: _514  and  _517
REMARK  201  A    between atoms: _517  and  _518
REMARK  202  A    between atoms: _523  and  _524
REMARK  203  A    between atoms: _526  and  _528
REMARK  204  A    between atoms: _528  and  _529
REMARK  205  A    between atoms: _528  and  _531
REMARK  206  A    between atoms: _531  and  _532
REMARK  207  A    between atoms: _534  and  _536
REMARK  208  A    between atoms: _536  and  _537
REMARK  209  A    between atoms: _536  and  _539
REMARK  210  A    between atoms: _539  and  _540
REMARK  211  A    between atoms: _546  and  _548
REMARK  212  A    between atoms: _548  and  _549
REMARK  213  A    between atoms: _548  and  _551
REMARK  214  A    between atoms: _551  and  _552
REMARK  215  A    between atoms: _555  and  _557
REMARK  216  A    between atoms: _557  and  _558
REMARK  217  A    between atoms: _557  and  _560
REMARK  218  A    between atoms: _560  and  _561
REMARK  219  A    between atoms: _563  and  _565
REMARK  220  A    between atoms: _565  and  _566
REMARK  221  A    between atoms: _565  and  _568
REMARK  222  A    between atoms: _568  and  _569
REMARK  223  A    between atoms: _574  and  _576
REMARK  224  A    between atoms: _576  and  _577
REMARK  225  A    between atoms: _576  and  _579
REMARK  226  A    between atoms: _579  and  _580
REMARK  227  A    between atoms: _585  and  _587
REMARK  228  A    between atoms: _587  and  _588
REMARK  229  A    between atoms: _587  and  _590
REMARK  230  A    between atoms: _590  and  _591
REMARK  231  A    between atoms: _594  and  _596
REMARK  232  A    between atoms: _596  and  _597
REMARK  233  A    between atoms: _600  and  _602
REMARK  234  A    between atoms: _602  and  _603
REMARK  235  A    between atoms: _602  and  _605
REMARK  236  A    between atoms: _605  and  _606
REMARK  237  A    between atoms: _611  and  _612
REMARK  238  A    between atoms: _614  and  _616
REMARK  239  A    between atoms: _616  and  _617
REMARK  240  A    between atoms: _616  and  _619
REMARK  241  A    between atoms: _619  and  _620
REMARK  242  A    between atoms: _625  and  _626
REMARK  243  A    between atoms: _628  and  _630
REMARK  244  A    between atoms: _630  and  _631
REMARK  245  A    between atoms: _630  and  _633
REMARK  246  A    between atoms: _636  and  _638
REMARK  247  A    between atoms: _638  and  _639
REMARK  248  A    between atoms: _638  and  _641
REMARK  249  A    between atoms: _641  and  _642
REMARK  250  A    between atoms: _647  and  _649
REMARK  251  A    between atoms: _649  and  _650
REMARK  252  A    between atoms: _653  and  _655
REMARK  253  A    between atoms: _655  and  _656
REMARK  254  A    between atoms: _655  and  _658
REMARK  255  A    between atoms: _658  and  _659
REMARK  256  A    between atoms: _659  and  _660
REMARK  257  A    between atoms: _660  and  _661
REMARK  258  A    between atoms: _670  and  _672
REMARK  259  A    between atoms: _672  and  _673
REMARK  260  A    between atoms: _672  and  _675
REMARK  261  A    between atoms: _675  and  _676
REMARK  262  A    between atoms: _679  and  _681
REMARK  263  A    between atoms: _681  and  _682
REMARK  264  A    between atoms: _681  and  _684
REMARK  265  A    between atoms: _684  and  _685
REMARK  266  A    between atoms: _688  and  _690
REMARK  267  A    between atoms: _690  and  _691
REMARK  268  A    between atoms: _690  and  _693
REMARK  269  A    between atoms: _693  and  _694
REMARK                            x       y       z     vdW  Elec       q    Type
REMARK                         _______ _______ _______ _____ _____    ______ ____
ROOT
ATOM      1  CA  GLU A   1     -12.389  23.147  10.486  0.00  0.00    +0.134 C 
ENDROOT
BRANCH   1   2
ATOM      2  N   GLU A   1     -12.097  24.485  10.961  0.00  0.00    -0.239 NA
ATOM      3  H   GLU A   1     -11.972  24.616  11.985  0.00  0.00    +0.142 HD
ENDBRANCH   1   2
BRANCH   1   4
ATOM      4  C   GLU A   1     -13.817  23.148   9.875  0.00  0.00    +0.224 C 
ATOM      5  O   GLU A   1     -14.057  22.380   8.949  0.00  0.00    -0.287 OA
ENDBRANCH   1   4
BRANCH   1   6
ATOM      6  CB  GLU A   1     -12.272  22.122  11.613  0.00  0.00    +0.037 C 
BRANCH   6   7
ATOM      7  CG  GLU A   1     -10.840  21.992  12.232  0.00  0.00    +0.116 C 
BRANCH   7   8
ATOM      8  CD  GLU A   1     -10.545  23.012  13.291  0.00  0.00    +0.365 C 
ATOM      9  OE2 GLU A   1      -9.362  23.110  13.746  0.00  0.00    -0.246 OA
ATOM     10  OE1 GLU A   1     -11.474  23.774  13.681  0.00  0.00    -0.246 OA
ENDBRANCH   7   8
ENDBRANCH   6   7
ENDBRANCH   1   6
TORSDOF 5
REMARK  Name = ../refined-set-2016/1b3f/1b3f_pocket.pdb
REMARK  269 active torsions:
REMARK  status: ('A' for Active; 'I' for Inactive)
REMARK    1  A    between atoms: _1  and  _3
REMARK    2  A    between atoms: _3  and  _4
REMARK    3  A    between atoms: _3  and  _6
REMARK    4  A    between atoms: _6  and  _7
REMARK    5  A    between atoms: _12  and  _14
REMARK    6  A    between atoms: _14  and  _15
REMARK    7  A    between atoms: _17  and  _19
REMARK    8  A    between atoms: _19  and  _20
REMARK    9  A    between atoms: _19  and  _22
REMARK   10  A    between atoms: _22  and  _23
REMARK   11  A    between atoms: _25  and  _27
REMARK   12  A    between atoms: _27  and  _28
REMARK   13  A    between atoms: _27  and  _30
REMARK   14  A    between atoms: _30  and  _31
REMARK   15  A    between atoms: _31  and  _32
REMARK   16  A    between atoms: _37  and  _39
REMARK   17  A    between atoms: _39  and  _40
REMARK   18  A    between atoms: _39  and  _42
REMARK   19  A    between atoms: _42  and  _43
REMARK   20  A    between atoms: _46  and  _48
REMARK   21  A    between atoms: _48  and  _49
REMARK   22  A    between atoms: _48  and  _51
REMARK   23  A    between atoms: _52  and  _53
REMARK   24  A    between atoms: _56  and  _58
REMARK   25  A    between atoms: _58  and  _59
REMARK   26  A    between atoms: _61  and  _63
REMARK   27  A    between atoms: _63  and  _64
REMARK   28  A    between atoms: _63  and  _66
REMARK   29  A    between atoms: _70  and  _71
REMARK   30  A    between atoms: _76  and  _78
REMARK   31  A    between atoms: _78  and  _79
REMARK   32  A    between atoms: _78  and  _81
REMARK   33  A    between atoms: _81  and  _82
REMARK   34  A    between atoms: _82  and  _83
REMARK   35  A    between atoms: _86  and  _88
REMARK   36  A    between atoms: _88  and  _89
REMARK   37  A    between atoms: _88  and  _91
REMARK   38  A    between atoms: _91  and  _92
REMARK   39  A    between atoms: _94  and  _96
REMARK   40  A    between atoms: _96  and  _97
REMARK   41  A    between atoms: _96  and  _99
REMARK   42  A    between atoms: _99  and  _100
REMARK   43  A    between atoms: _105  and  _107
REMARK   44  A    between atoms: _107  and  _108
REMARK   45  A    between atoms: _107  and  _110
REMARK   46  A    between atoms: _110  and  _111
REMARK   47  A    between atoms: _111  and  _112
REMARK   48  A    between atoms: _112  and  _113
REMARK   49  A    between atoms: _123  and  _124
REMARK   50  A    between atoms: _129  and  _131
REMARK   51  A    between atoms: _131  and  _132
REMARK   52  A    between atoms: _131  and  _134
REMARK   53  A    between atoms: _134  and  _135
REMARK   54  A    between atoms: _140  and  _141
REMARK   55  A    between atoms: _143  and  _145
REMARK   56  A    between atoms: _145  and  _146
REMARK   57  A    between atoms: _145  and  _148
REMARK   58  A    between atoms: _148  and  _149
REMARK   59  A    between atoms: _154  and  _155
REMARK   60  A    between atoms: _157  and  _159
REMARK   61  A    between atoms: _159  and  _160
REMARK   62  A    between atoms: _159  and  _162
REMARK   63  A    between atoms: _165  and  _167
REMARK   64  A    between atoms: _167  and  _168
REMARK   65  A    between atoms: _167  and  _170
REMARK   66  A    between atoms: _170  and  _171
REMARK   67  A    between atoms: _177  and  _178
REMARK   68  A    between atoms: _183  and  _185
REMARK   69  A    between atoms: _185  and  _186
REMARK   70  A    between atoms: _185  and  _188
REMARK   71  A    between atoms: _188  and  _189
REMARK   72  A    between atoms: _191  and  _193
REMARK   73  A    between atoms: _193  and  _194
REMARK   74  A    between atoms: _193  and  _196
REMARK   75  A    between atoms: _196  and  _197
REMARK   76  A    between atoms: _197  and  _198
REMARK   77  A    between atoms: _201  and  _203
REMARK   78  A    between atoms: _203  and  _204
REMARK   79  A    between atoms: _203  and  _206
REMARK   80  A    between atoms: _206  and  _207
REMARK   81  A    between atoms: _212  and  _213
REMARK   82  A    between atoms: _215  and  _217
REMARK   83  A    between atoms: _217  and  _218
REMARK   84  A    between atoms: _217  and  _220
REMARK   85  A    between atoms: _220  and  _221
REMARK   86  A    between atoms: _226  and  _228
REMARK   87  A    between atoms: _228  and  _229
REMARK   88  A    between atoms: _228  and  _231
REMARK   89  A    between atoms: _231  and  _232
REMARK   90  A    between atoms: _237  and  _239
REMARK   91  A    between atoms: _239  and  _240
REMARK   92  A    between atoms: _239  and  _242
REMARK   93  A    between atoms: _242  and  _243
REMARK   94  A    between atoms: _243  and  _244
REMARK   95  A    between atoms: _246  and  _248
REMARK   96  A    between atoms: _248  and  _249
REMARK   97  A    between atoms: _248  and  _251
REMARK   98  A    between atoms: _251  and  _252
REMARK   99  A    between atoms: _257  and  _258
REMARK  100  A    between atoms: _260  and  _262
REMARK  101  A    between atoms: _262  and  _263
REMARK  102  A    between atoms: _262  and  _265
REMARK  103  A    between atoms: _265  and  _266
REMARK  104  A    between atoms: _269  and  _271
REMARK  105  A    between atoms: _271  and  _272
REMARK  106  A    between atoms: _271  and  _274
REMARK  107  A    between atoms: _274  and  _275
REMARK  108  A    between atoms: _275  and  _496
REMARK  109  A    between atoms: _276  and  _278
REMARK  110  A    between atoms: _278  and  _279
REMARK  111  A    between atoms: _278  and  _281
REMARK  112  A    between atoms: _281  and  _282
REMARK  113  A    between atoms: _285  and  _287
REMARK  114  A    between atoms: _287  and  _288
REMARK  115  A    between atoms: _287  and  _290
REMARK  116  A    between atoms: _290  and  _291
REMARK  117  A    between atoms: _296  and  _297
REMARK  118  A    between atoms: _299  and  _301
REMARK  119  A    between atoms: _301  and  _302
REMARK  120  A    between atoms: _301  and  _304
REMARK  121  A    between atoms: _304  and  _305
REMARK  122  A    between atoms: _310  and  _311
REMARK  123  A    between atoms: _313  and  _315
REMARK  124  A    between atoms: _315  and  _316
REMARK  125  A    between atoms: _315  and  _318
REMARK  126  A    between atoms: _318  and  _319
REMARK  127  A    between atoms: _319  and  _320
REMARK  128  A    between atoms: _323  and  _325
REMARK  129  A    between atoms: _325  and  _326
REMARK  130  A    between atoms: _325  and  _328
REMARK  131  A    between atoms: _328  and  _329
REMARK  132  A    between atoms: _329  and  _330
REMARK  133  A    between atoms: _330  and  _331
REMARK  134  A    between atoms: _331  and  _332
REMARK  135  A    between atoms: _336  and  _338
REMARK  136  A    between atoms: _338  and  _339
REMARK  137  A    between atoms: _338  and  _341
REMARK  138  A    between atoms: _341  and  _342
REMARK  139  A    between atoms: _347  and  _348
REMARK  140  A    between atoms: _350  and  _352
REMARK  141  A    between atoms: _352  and  _353
REMARK  142  A    between atoms: _352  and  _355
REMARK  143  A    between atoms: _355  and  _356
REMARK  144  A    between atoms: _361  and  _363
REMARK  145  A    between atoms: _363  and  _364
REMARK  146  A    between atoms: _363  and  _366
REMARK  147  A    between atoms: _366  and  _367
REMARK  148  A    between atoms: _370  and  _372
REMARK  149  A    between atoms: _372  and  _373
REMARK  150  A    between atoms: _372  and  _375
REMARK  151  A    between atoms: _375  and  _376
REMARK  152  A    between atoms: _381  and  _383
REMARK  153  A    between atoms: _383  and  _384
REMARK  154  A    between atoms: _383  and  _386
REMARK  155  A    between atoms: _386  and  _387
REMARK  156  A    between atoms: _397  and  _399
REMARK  157  A    between atoms: _399  and  _400
REMARK  158  A    between atoms: _399  and  _402
REMARK  159  A    between atoms: _402  and  _403
REMARK  160  A    between atoms: _409  and  _411
REMARK  161  A    between atoms: _411  and  _412
REMARK  162  A    between atoms: _411  and  _414
REMARK  163  A    between atoms: _414  and  _415
REMARK  164  A    between atoms: _418  and  _420
REMARK  165  A    between atoms: _420  and  _421
REMARK  166  A    between atoms: _420  and  _423
REMARK  167  A    between atoms: _423  and  _424
REMARK  168  A    between atoms: _424  and  _425
REMARK  169  A    between atoms: _425  and  _426
REMARK  170  A    between atoms: _435  and  _437
REMARK  171  A    between atoms: _437  and  _438
REMARK  172  A    between atoms: _437  and  _440
REMARK  173  A    between atoms: _440  and  _441
REMARK  174  A    between atoms: _446  and  _448
REMARK  175  A    between atoms: _448  and  _449
REMARK  176  A    between atoms: _448  and  _451
REMARK  177  A    between atoms: _451  and  _452
REMARK  178  A    between atoms: _452  and  _453
REMARK  179  A    between atoms: _453  and  _454
REMARK  180  A    between atoms: _463  and  _465
REMARK  181  A    between atoms: _465  and  _466
REMARK  182  A    between atoms: _469  and  _471
REMARK  183  A    between atoms: _471  and  _472
REMARK  184  A    between atoms: _474  and  _476
REMARK  185  A    between atoms: _476  and  _477
REMARK  186  A    between atoms: _476  and  _479
REMARK  187  A    between atoms: _479  and  _480
REMARK  188  A    between atoms: _490  and  _492
REMARK  189  A    between atoms: _492  and  _493
REMARK  190  A    between atoms: _492  and  _495
REMARK  191  A    between atoms: _495  and  _496
REMARK  192  A    between atoms: _497  and  _499
REMARK  193  A    between atoms: _499  and  _500
REMARK  194  A    between atoms: _503  and  _505
REMARK  195  A    between atoms: _505  and  _506
REMARK  196  A    between atoms: _505  and  _508
REMARK  197  A    between atoms: _508  and  _509
REMARK  198  A    between atoms: _512  and  _514
REMARK  199  A    between atoms: _514  and  _515
REMARK  200  A    between atoms: _514  and  _517
REMARK  201  A    between atoms: _517  and  _518
REMARK  202  A    between atoms: _523  and  _524
REMARK  203  A    between atoms: _526  and  _528
REMARK  204  A    between atoms: _528  and  _529
REMARK  205  A    between atoms: _528  and  _531
REMARK  206  A    between atoms: _531  and  _532
REMARK  207  A    between atoms: _534  and  _536
REMARK  208  A    between atoms: _536  and  _537
REMARK  209  A    between atoms: _536  and  _539
REMARK  210  A    between atoms: _539  and  _540
REMARK  211  A    between atoms: _546  and  _548
REMARK  212  A    between atoms: _548  and  _549
REMARK  213  A    between atoms: _548  and  _551
REMARK  214  A    between atoms: _551  and  _552
REMARK  215  A    between atoms: _555  and  _557
REMARK  216  A    between atoms: _557  and  _558
REMARK  217  A    between atoms: _557  and  _560
REMARK  218  A    between atoms: _560  and  _561
REMARK  219  A    between atoms: _563  and  _565
REMARK  220  A    between atoms: _565  and  _566
REMARK  221  A    between atoms: _565  and  _568
REMARK  222  A    between atoms: _568  and  _569
REMARK  223  A    between atoms: _574  and  _576
REMARK  224  A    between atoms: _576  and  _577
REMARK  225  A    between atoms: _576  and  _579
REMARK  226  A    between atoms: _579  and  _580
REMARK  227  A    between atoms: _585  and  _587
REMARK  228  A    between atoms: _587  and  _588
REMARK  229  A    between atoms: _587  and  _590
REMARK  230  A    between atoms: _590  and  _591
REMARK  231  A    between atoms: _594  and  _596
REMARK  232  A    between atoms: _596  and  _597
REMARK  233  A    between atoms: _600  and  _602
REMARK  234  A    between atoms: _602  and  _603
REMARK  235  A    between atoms: _602  and  _605
REMARK  236  A    between atoms: _605  and  _606
REMARK  237  A    between atoms: _611  and  _612
REMARK  238  A    between atoms: _614  and  _616
REMARK  239  A    between atoms: _616  and  _617
REMARK  240  A    between atoms: _616  and  _619
REMARK  241  A    between atoms: _619  and  _620
REMARK  242  A    between atoms: _625  and  _626
REMARK  243  A    between atoms: _628  and  _630
REMARK  244  A    between atoms: _630  and  _631
REMARK  245  A    between atoms: _630  and  _633
REMARK  246  A    between atoms: _636  and  _638
REMARK  247  A    between atoms: _638  and  _639
REMARK  248  A    between atoms: _638  and  _641
REMARK  249  A    between atoms: _641  and  _642
REMARK  250  A    between atoms: _647  and  _649
REMARK  251  A    between atoms: _649  and  _650
REMARK  252  A    between atoms: _653  and  _655
REMARK  253  A    between atoms: _655  and  _656
REMARK  254  A    between atoms: _655  and  _658
REMARK  255  A    between atoms: _658  and  _659
REMARK  256  A    between atoms: _659  and  _660
REMARK  257  A    between atoms: _660  and  _661
REMARK  258  A    between atoms: _670  and  _672
REMARK  259  A    between atoms: _672  and  _673
REMARK  260  A    between atoms: _672  and  _675
REMARK  261  A    between atoms: _675  and  _676
REMARK  262  A    between atoms: _679  and  _681
REMARK  263  A    between atoms: _681  and  _682
REMARK  264  A    between atoms: _681  and  _684
REMARK  265  A    between atoms: _684  and  _685
REMARK  266  A    between atoms: _688  and  _690
REMARK  267  A    between atoms: _690  and  _691
REMARK  268  A    between atoms: _690  and  _693
REMARK  269  A    between atoms: _693  and  _694
REMARK                            x       y       z     vdW  Elec       q    Type
REMARK                         _______ _______ _______ _____ _____    ______ ____
ROOT
ATOM      1  CA  ASN A   2      -6.930  16.488   9.438  0.00  0.00    +0.158 C 
ENDROOT
BRANCH   1   3
ATOM      2  C   TYR A   1      -7.361  18.169   7.742  0.00  0.00    +0.239 C 
ATOM      3  N   ASN A   2      -6.525  17.574   8.569  0.00  0.00    -0.297 N 
ATOM      4  H   ASN A   2      -5.537  17.896   8.599  0.00  0.00    +0.150 HD
ATOM      5  O   TYR A   1      -8.551  17.817   7.680  0.00  0.00    -0.274 OA
BRANCH   2   6
ATOM      6  CA  TYR A   1      -6.844  19.240   6.770  0.00  0.00    +0.149 C 
BRANCH   6   7
ATOM      7  N   TYR A   1      -7.954  19.443   5.822  0.00  0.00    -0.238 NA
ATOM      8  H   TYR A   1      -8.527  20.311   5.855  0.00  0.00    +0.142 HD
ENDBRANCH   6   7
BRANCH   6   9
ATOM      9  CB  TYR A   1      -6.526  20.528   7.497  0.00  0.00    +0.053 C 
BRANCH   9  10
ATOM     10  CG  TYR A   1      -5.326  20.417   8.428  0.00  0.00    -0.020 A 
ATOM     11  CD2 TYR A   1      -5.457  20.699   9.770  0.00  0.00    -0.001 A 
ATOM     12  CE2 TYR A   1      -4.373  20.599  10.637  0.00  0.00    +0.036 A 
ATOM     13  CZ  TYR A   1      -3.163  20.201  10.110  0.00  0.00    +0.134 A 
ATOM     14  CE1 TYR A   1      -2.998  19.916   8.768  0.00  0.00    +0.036 A 
ATOM     15  CD1 TYR A   1      -4.099  20.050   7.919  0.00  0.00    -0.001 A 
BRANCH  13  16
ATOM     16  OH  TYR A   1      -2.061  20.059  10.936  0.00  0.00    -0.506 OA
ATOM     17  HH  TYR A   1      -1.860  20.927  11.369  0.00  0.00    +0.292 HD
ENDBRANCH  13  16
ENDBRANCH   9  10
ENDBRANCH   6   9
ENDBRANCH   2   6
ENDBRANCH   1   3
BRANCH   1  18
ATOM     18  C   ASN A   2      -7.058  16.994  10.863  0.00  0.00    +0.241 C 
ATOM     19  O   ASN A   2      -6.379  16.542  11.760  0.00  0.00    -0.273 OA
ATOM     20  N   ASN A   3      -7.949  17.959  11.012  0.00  0.00    -0.297 N 
ATOM     21  H   ASN A   3      -8.283  18.394  10.128  0.00  0.00    +0.150 HD
BRANCH  20  22
ATOM     22  CA  ASN A   3      -8.527  18.498  12.218  0.00  0.00    +0.158 C 
BRANCH  22  23
ATOM     23  C   ASN A   3     -10.033  18.579  11.830  0.00  0.00    +0.241 C 
ATOM     24  N   MET A   4     -10.897  17.891  12.565  0.00  0.00    -0.298 N 
ATOM     25  H   MET A   4     -10.556  17.369  13.397  0.00  0.00    +0.150 HD
ATOM     26  O   ASN A   3     -10.313  19.150  10.759  0.00  0.00    -0.273 OA
BRANCH  24  27
ATOM     27  CA  MET A   4     -12.312  17.853  12.229  0.00  0.00    +0.138 C 
BRANCH  27  28
ATOM     28  C   MET A   4     -13.159  18.656  13.243  0.00  0.00    +0.227 C 
ATOM     29  O   MET A   4     -12.891  18.627  14.428  0.00  0.00    -0.286 OA
ENDBRANCH  27  28
BRANCH  27  30
ATOM     30  CB  MET A   4     -12.778  16.402  12.224  0.00  0.00    +0.039 C 
BRANCH  30  31
ATOM     31  CG  MET A   4     -12.261  15.558  11.084  0.00  0.00    +0.060 C 
BRANCH  31  32
ATOM     32  SD  MET A   4     -13.166  15.881   9.547  0.00  0.00    -0.139 S 
ATOM     33  CE  MET A   4     -12.139  17.145   8.834  0.00  0.00    +0.069 C 
ENDBRANCH  31  32
ENDBRANCH  30  31
ENDBRANCH  27  30
ENDBRANCH  24  27
ENDBRANCH  22  23
BRANCH  22  34
ATOM     34  CB  ASN A   3      -8.085  19.891  12.625  0.00  0.00    +0.114 C 
BRANCH  34  35
ATOM     35  CG  ASN A   3      -6.840  20.037  13.449  0.00  0.00    +0.222 C 
ATOM     36  OD1 ASN A   3      -6.280  19.116  14.032  0.00  0.00    -0.275 OA
ATOM     37  ND2 ASN A   3      -6.377  21.312  13.533  0.00  0.00    -0.329 N 
ATOM     38 HD21 ASN A   3      -5.531  21.522  14.101  0.00  0.00    +0.145 HD
ATOM     39 HD22 ASN A   3      -6.868  22.078  13.030  0.00  0.00    +0.145 HD
ENDBRANCH  34  35
ENDBRANCH  22  34
ENDBRANCH  20  22
ENDBRANCH   1  18
BRANCH   1  40
ATOM     40  CB  ASN A   2      -6.006  15.288   9.301  0.00  0.00    +0.114 C 
BRANCH  40  41
ATOM     41  CG  ASN A   2      -4.533  15.582   9.502  0.00  0.00    +0.222 C 
ATOM     42  ND2 ASN A   2      -3.813  14.495   9.718  0.00  0.00    -0.329 N 
ATOM     43 HD21 ASN A   2      -2.793  14.575   9.905  0.00  0.00    +0.145 HD
ATOM     44 HD22 ASN A   2      -4.266  13.559   9.701  0.00  0.00    +0.145 HD
ATOM     45  OD1 ASN A   2      -4.100  16.716   9.501  0.00  0.00    -0.275 OA
ENDBRANCH  40  41
ENDBRANCH   1  40
TORSDOF 18
REMARK  Name = ../refined-set-2016/1b3f/1b3f_pocket.pdb
REMARK  269 active torsions:
REMARK  status: ('A' for Active; 'I' for Inactive)
REMARK    1  A    between atoms: _1  and  _3
REMARK    2  A    between atoms: _3  and  _4
REMARK    3  A    between atoms: _3  and  _6
REMARK    4  A    between atoms: _6  and  _7
REMARK    5  A    between atoms: _12  and  _14
REMARK    6  A    between atoms: _14  and  _15
REMARK    7  A    between atoms: _17  and  _19
REMARK    8  A    between atoms: _19  and  _20
REMARK    9  A    between atoms: _19  and  _22
REMARK   10  A    between atoms: _22  and  _23
REMARK   11  A    between atoms: _25  and  _27
REMARK   12  A    between atoms: _27  and  _28
REMARK   13  A    between atoms: _27  and  _30
REMARK   14  A    between atoms: _30  and  _31
REMARK   15  A    between atoms: _31  and  _32
REMARK   16  A    between atoms: _37  and  _39
REMARK   17  A    between atoms: _39  and  _40
REMARK   18  A    between atoms: _39  and  _42
REMARK   19  A    between atoms: _42  and  _43
REMARK   20  A    between atoms: _46  and  _48
REMARK   21  A    between atoms: _48  and  _49
REMARK   22  A    between atoms: _48  and  _51
REMARK   23  A    between atoms: _52  and  _53
REMARK   24  A    between atoms: _56  and  _58
REMARK   25  A    between atoms: _58  and  _59
REMARK   26  A    between atoms: _61  and  _63
REMARK   27  A    between atoms: _63  and  _64
REMARK   28  A    between atoms: _63  and  _66
REMARK   29  A    between atoms: _70  and  _71
REMARK   30  A    between atoms: _76  and  _78
REMARK   31  A    between atoms: _78  and  _79
REMARK   32  A    between atoms: _78  and  _81
REMARK   33  A    between atoms: _81  and  _82
REMARK   34  A    between atoms: _82  and  _83
REMARK   35  A    between atoms: _86  and  _88
REMARK   36  A    between atoms: _88  and  _89
REMARK   37  A    between atoms: _88  and  _91
REMARK   38  A    between atoms: _91  and  _92
REMARK   39  A    between atoms: _94  and  _96
REMARK   40  A    between atoms: _96  and  _97
REMARK   41  A    between atoms: _96  and  _99
REMARK   42  A    between atoms: _99  and  _100
REMARK   43  A    between atoms: _105  and  _107
REMARK   44  A    between atoms: _107  and  _108
REMARK   45  A    between atoms: _107  and  _110
REMARK   46  A    between atoms: _110  and  _111
REMARK   47  A    between atoms: _111  and  _112
REMARK   48  A    between atoms: _112  and  _113
REMARK   49  A    between atoms: _123  and  _124
REMARK   50  A    between atoms: _129  and  _131
REMARK   51  A    between atoms: _131  and  _132
REMARK   52  A    between atoms: _131  and  _134
REMARK   53  A    between atoms: _134  and  _135
REMARK   54  A    between atoms: _140  and  _141
REMARK   55  A    between atoms: _143  and  _145
REMARK   56  A    between atoms: _145  and  _146
REMARK   57  A    between atoms: _145  and  _148
REMARK   58  A    between atoms: _148  and  _149
REMARK   59  A    between atoms: _154  and  _155
REMARK   60  A    between atoms: _157  and  _159
REMARK   61  A    between atoms: _159  and  _160
REMARK   62  A    between atoms: _159  and  _162
REMARK   63  A    between atoms: _165  and  _167
REMARK   64  A    between atoms: _167  and  _168
REMARK   65  A    between atoms: _167  and  _170
REMARK   66  A    between atoms: _170  and  _171
REMARK   67  A    between atoms: _177  and  _178
REMARK   68  A    between atoms: _183  and  _185
REMARK   69  A    between atoms: _185  and  _186
REMARK   70  A    between atoms: _185  and  _188
REMARK   71  A    between atoms: _188  and  _189
REMARK   72  A    between atoms: _191  and  _193
REMARK   73  A    between atoms: _193  and  _194
REMARK   74  A    between atoms: _193  and  _196
REMARK   75  A    between atoms: _196  and  _197
REMARK   76  A    between atoms: _197  and  _198
REMARK   77  A    between atoms: _201  and  _203
REMARK   78  A    between atoms: _203  and  _204
REMARK   79  A    between atoms: _203  and  _206
REMARK   80  A    between atoms: _206  and  _207
REMARK   81  A    between atoms: _212  and  _213
REMARK   82  A    between atoms: _215  and  _217
REMARK   83  A    between atoms: _217  and  _218
REMARK   84  A    between atoms: _217  and  _220
REMARK   85  A    between atoms: _220  and  _221
REMARK   86  A    between atoms: _226  and  _228
REMARK   87  A    between atoms: _228  and  _229
REMARK   88  A    between atoms: _228  and  _231
REMARK   89  A    between atoms: _231  and  _232
REMARK   90  A    between atoms: _237  and  _239
REMARK   91  A    between atoms: _239  and  _240
REMARK   92  A    between atoms: _239  and  _242
REMARK   93  A    between atoms: _242  and  _243
REMARK   94  A    between atoms: _243  and  _244
REMARK   95  A    between atoms: _246  and  _248
REMARK   96  A    between atoms: _248  and  _249
REMARK   97  A    between atoms: _248  and  _251
REMARK   98  A    between atoms: _251  and  _252
REMARK   99  A    between atoms: _257  and  _258
REMARK  100  A    between atoms: _260  and  _262
REMARK  101  A    between atoms: _262  and  _263
REMARK  102  A    between atoms: _262  and  _265
REMARK  103  A    between atoms: _265  and  _266
REMARK  104  A    between atoms: _269  and  _271
REMARK  105  A    between atoms: _271  and  _272
REMARK  106  A    between atoms: _271  and  _274
REMARK  107  A    between atoms: _274  and  _275
REMARK  108  A    between atoms: _275  and  _496
REMARK  109  A    between atoms: _276  and  _278
REMARK  110  A    between atoms: _278  and  _279
REMARK  111  A    between atoms: _278  and  _281
REMARK  112  A    between atoms: _281  and  _282
REMARK  113  A    between atoms: _285  and  _287
REMARK  114  A    between atoms: _287  and  _288
REMARK  115  A    between atoms: _287  and  _290
REMARK  116  A    between atoms: _290  and  _291
REMARK  117  A    between atoms: _296  and  _297
REMARK  118  A    between atoms: _299  and  _301
REMARK  119  A    between atoms: _301  and  _302
REMARK  120  A    between atoms: _301  and  _304
REMARK  121  A    between atoms: _304  and  _305
REMARK  122  A    between atoms: _310  and  _311
REMARK  123  A    between atoms: _313  and  _315
REMARK  124  A    between atoms: _315  and  _316
REMARK  125  A    between atoms: _315  and  _318
REMARK  126  A    between atoms: _318  and  _319
REMARK  127  A    between atoms: _319  and  _320
REMARK  128  A    between atoms: _323  and  _325
REMARK  129  A    between atoms: _325  and  _326
REMARK  130  A    between atoms: _325  and  _328
REMARK  131  A    between atoms: _328  and  _329
REMARK  132  A    between atoms: _329  and  _330
REMARK  133  A    between atoms: _330  and  _331
REMARK  134  A    between atoms: _331  and  _332
REMARK  135  A    between atoms: _336  and  _338
REMARK  136  A    between atoms: _338  and  _339
REMARK  137  A    between atoms: _338  and  _341
REMARK  138  A    between atoms: _341  and  _342
REMARK  139  A    between atoms: _347  and  _348
REMARK  140  A    between atoms: _350  and  _352
REMARK  141  A    between atoms: _352  and  _353
REMARK  142  A    between atoms: _352  and  _355
REMARK  143  A    between atoms: _355  and  _356
REMARK  144  A    between atoms: _361  and  _363
REMARK  145  A    between atoms: _363  and  _364
REMARK  146  A    between atoms: _363  and  _366
REMARK  147  A    between atoms: _366  and  _367
REMARK  148  A    between atoms: _370  and  _372
REMARK  149  A    between atoms: _372  and  _373
REMARK  150  A    between atoms: _372  and  _375
REMARK  151  A    between atoms: _375  and  _376
REMARK  152  A    between atoms: _381  and  _383
REMARK  153  A    between atoms: _383  and  _384
REMARK  154  A    between atoms: _383  and  _386
REMARK  155  A    between atoms: _386  and  _387
REMARK  156  A    between atoms: _397  and  _399
REMARK  157  A    between atoms: _399  and  _400
REMARK  158  A    between atoms: _399  and  _402
REMARK  159  A    between atoms: _402  and  _403
REMARK  160  A    between atoms: _409  and  _411
REMARK  161  A    between atoms: _411  and  _412
REMARK  162  A    between atoms: _411  and  _414
REMARK  163  A    between atoms: _414  and  _415
REMARK  164  A    between atoms: _418  and  _420
REMARK  165  A    between atoms: _420  and  _421
REMARK  166  A    between atoms: _420  and  _423
REMARK  167  A    between atoms: _423  and  _424
REMARK  168  A    between atoms: _424  and  _425
REMARK  169  A    between atoms: _425  and  _426
REMARK  170  A    between atoms: _435  and  _437
REMARK  171  A    between atoms: _437  and  _438
REMARK  172  A    between atoms: _437  and  _440
REMARK  173  A    between atoms: _440  and  _441
REMARK  174  A    between atoms: _446  and  _448
REMARK  175  A    between atoms: _448  and  _449
REMARK  176  A    between atoms: _448  and  _451
REMARK  177  A    between atoms: _451  and  _452
REMARK  178  A    between atoms: _452  and  _453
REMARK  179  A    between atoms: _453  and  _454
REMARK  180  A    between atoms: _463  and  _465
REMARK  181  A    between atoms: _465  and  _466
REMARK  182  A    between atoms: _469  and  _471
REMARK  183  A    between atoms: _471  and  _472
REMARK  184  A    between atoms: _474  and  _476
REMARK  185  A    between atoms: _476  and  _477
REMARK  186  A    between atoms: _476  and  _479
REMARK  187  A    between atoms: _479  and  _480
REMARK  188  A    between atoms: _490  and  _492
REMARK  189  A    between atoms: _492  and  _493
REMARK  190  A    between atoms: _492  and  _495
REMARK  191  A    between atoms: _495  and  _496
REMARK  192  A    between atoms: _497  and  _499
REMARK  193  A    between atoms: _499  and  _500
REMARK  194  A    between atoms: _503  and  _505
REMARK  195  A    between atoms: _505  and  _506
REMARK  196  A    between atoms: _505  and  _508
REMARK  197  A    between atoms: _508  and  _509
REMARK  198  A    between atoms: _512  and  _514
REMARK  199  A    between atoms: _514  and  _515
REMARK  200  A    between atoms: _514  and  _517
REMARK  201  A    between atoms: _517  and  _518
REMARK  202  A    between atoms: _523  and  _524
REMARK  203  A    between atoms: _526  and  _528
REMARK  204  A    between atoms: _528  and  _529
REMARK  205  A    between atoms: _528  and  _531
REMARK  206  A    between atoms: _531  and  _532
REMARK  207  A    between atoms: _534  and  _536
REMARK  208  A    between atoms: _536  and  _537
REMARK  209  A    between atoms: _536  and  _539
REMARK  210  A    between atoms: _539  and  _540
REMARK  211  A    between atoms: _546  and  _548
REMARK  212  A    between atoms: _548  and  _549
REMARK  213  A    between atoms: _548  and  _551
REMARK  214  A    between atoms: _551  and  _552
REMARK  215  A    between atoms: _555  and  _557
REMARK  216  A    between atoms: _557  and  _558
REMARK  217  A    between atoms: _557  and  _560
REMARK  218  A    between atoms: _560  and  _561
REMARK  219  A    between atoms: _563  and  _565
REMARK  220  A    between atoms: _565  and  _566
REMARK  221  A    between atoms: _565  and  _568
REMARK  222  A    between atoms: _568  and  _569
REMARK  223  A    between atoms: _574  and  _576
REMARK  224  A    between atoms: _576  and  _577
REMARK  225  A    between atoms: _576  and  _579
REMARK  226  A    between atoms: _579  and  _580
REMARK  227  A    between atoms: _585  and  _587
REMARK  228  A    between atoms: _587  and  _588
REMARK  229  A    between atoms: _587  and  _590
REMARK  230  A    between atoms: _590  and  _591
REMARK  231  A    between atoms: _594  and  _596
REMARK  232  A    between atoms: _596  and  _597
REMARK  233  A    between atoms: _600  and  _602
REMARK  234  A    between atoms: _602  and  _603
REMARK  235  A    between atoms: _602  and  _605
REMARK  236  A    between atoms: _605  and  _606
REMARK  237  A    between atoms: _611  and  _612
REMARK  238  A    between atoms: _614  and  _616
REMARK  239  A    between atoms: _616  and  _617
REMARK  240  A    between atoms: _616  and  _619
REMARK  241  A    between atoms: _619  and  _620
REMARK  242  A    between atoms: _625  and  _626
REMARK  243  A    between atoms: _628  and  _630
REMARK  244  A    between atoms: _630  and  _631
REMARK  245  A    between atoms: _630  and  _633
REMARK  246  A    between atoms: _636  and  _638
REMARK  247  A    between atoms: _638  and  _639
REMARK  248  A    between atoms: _638  and  _641
REMARK  249  A    between atoms: _641  and  _642
REMARK  250  A    between atoms: _647  and  _649
REMARK  251  A    between atoms: _649  and  _650
REMARK  252  A    between atoms: _653  and  _655
REMARK  253  A    between atoms: _655  and  _656
REMARK  254  A    between atoms: _655  and  _658
REMARK  255  A    between atoms: _658  and  _659
REMARK  256  A    between atoms: _659  and  _660
REMARK  257  A    between atoms: _660  and  _661
REMARK  258  A    between atoms: _670  and  _672
REMARK  259  A    between atoms: _672  and  _673
REMARK  260  A    between atoms: _672  and  _675
REMARK  261  A    between atoms: _675  and  _676
REMARK  262  A    between atoms: _679  and  _681
REMARK  263  A    between atoms: _681  and  _682
REMARK  264  A    between atoms: _681  and  _684
REMARK  265  A    between atoms: _684  and  _685
REMARK  266  A    between atoms: _688  and  _690
REMARK  267  A    between atoms: _690  and  _691
REMARK  268  A    between atoms: _690  and  _693
REMARK  269  A    between atoms: _693  and  _694
REMARK                            x       y       z     vdW  Elec       q    Type
REMARK                         _______ _______ _______ _____ _____    ______ ____
ROOT
ATOM      1  CA  CYS A   5       3.136  14.031  16.154  0.00  0.00    +0.160 C 
ENDROOT
BRANCH   1   2
ATOM      2  C   CYS A   5       4.560  13.509  15.884  0.00  0.00    +0.242 C 
ATOM      3  N   ALA A   6       4.710  12.210  15.855  0.00  0.00    -0.297 N 
ATOM      4  H   ALA A   6       3.882  11.591  15.967  0.00  0.00    +0.150 HD
ATOM      5  O   CYS A   5       5.474  14.321  15.718  0.00  0.00    -0.273 OA
BRANCH   3   6
ATOM      6  CA  ALA A   6       6.042  11.621  15.665  0.00  0.00    +0.149 C 
ATOM      7  CB  ALA A   6       5.921  10.089  15.569  0.00  0.00    +0.031 C 
BRANCH   6   8
ATOM      8  C   ALA A   6       6.691  12.080  14.355  0.00  0.00    +0.241 C 
ATOM      9  N   ASP A   7       8.033  12.198  14.432  0.00  0.00    -0.297 N 
ATOM     10  H   ASP A   7       8.524  12.088  15.342  0.00  0.00    +0.150 HD
ATOM     11  O   ALA A   6       6.008  12.303  13.346  0.00  0.00    -0.273 OA
BRANCH   9  12
ATOM     12  CA  ASP A   7       8.792  12.488  13.192  0.00  0.00    +0.160 C 
BRANCH  12  13
ATOM     13  C   ASP A   7       9.342  11.172  12.642  0.00  0.00    +0.241 C 
ATOM     14  N   TYR A   8       9.552  10.194  13.510  0.00  0.00    -0.298 N 
ATOM     15  H   TYR A   8       9.410  10.396  14.520  0.00  0.00    +0.150 HD
ATOM     16  O   ASP A   7       9.648  11.065  11.434  0.00  0.00    -0.273 OA
BRANCH  14  17
ATOM     17  CA  TYR A   8       9.972   8.846  13.129  0.00  0.00    +0.141 C 
BRANCH  17  18
ATOM     18  C   TYR A   8       9.295   7.900  14.128  0.00  0.00    +0.227 C 
ATOM     19  O   TYR A   8       9.001   8.295  15.273  0.00  0.00    -0.286 OA
ENDBRANCH  17  18
BRANCH  17  20
ATOM     20  CB  TYR A   8      11.479   8.723  13.081  0.00  0.00    +0.054 C 
BRANCH  20  21
ATOM     21  CG  TYR A   8      12.192   9.112  14.363  0.00  0.00    -0.020 A 
ATOM     22  CD2 TYR A   8      12.590   8.156  15.294  0.00  0.00    -0.001 A 
ATOM     23  CE2 TYR A   8      13.250   8.511  16.471  0.00  0.00    +0.036 A 
ATOM     24  CZ  TYR A   8      13.586   9.838  16.662  0.00  0.00    +0.134 A 
ATOM     25  CE1 TYR A   8      13.181  10.805  15.774  0.00  0.00    +0.036 A 
ATOM     26  CD1 TYR A   8      12.519  10.437  14.618  0.00  0.00    -0.001 A 
BRANCH  24  27
ATOM     27  OH  TYR A   8      14.279  10.215  17.801  0.00  0.00    -0.506 OA
ATOM     28  HH  TYR A   8      13.746   9.983  18.602  0.00  0.00    +0.292 HD
ENDBRANCH  24  27
ENDBRANCH  20  21
ENDBRANCH  17  20
ENDBRANCH  14  17
ENDBRANCH  12  13
BRANCH  12  29
ATOM     29  CB  ASP A   7       9.937  13.451  13.567  0.00  0.00    +0.143 C 
BRANCH  29  30
ATOM     30  CG  ASP A   7       9.358  14.786  14.044  0.00  0.00    +0.367 C 
ATOM     31  OD2 ASP A   7       9.938  15.333  14.980  0.00  0.00    -0.246 OA
ATOM     32  OD1 ASP A   7       8.360  15.249  13.445  0.00  0.00    -0.246 OA
ENDBRANCH  29  30
ENDBRANCH  12  29
ENDBRANCH   9  12
ENDBRANCH   6   8
ENDBRANCH   3   6
ENDBRANCH   1   2
BRANCH   1  33
ATOM     33  N   CYS A   5       3.241  15.182  17.007  0.00  0.00    -0.296 N 
ATOM     34  C   TRP A   4       2.721  15.232  18.236  0.00  0.00    +0.241 C 
ATOM     35  O   TRP A   4       2.064  14.294  18.731  0.00  0.00    -0.273 OA
ATOM     36  H   CYS A   5       3.747  16.018  16.650  0.00  0.00    +0.150 HD
BRANCH  34  37
ATOM     37  CA  TRP A   4       3.017  16.472  19.064  0.00  0.00    +0.153 C 
BRANCH  37  38
ATOM     38  N   TRP A   4       1.772  16.850  19.751  0.00  0.00    -0.297 N 
ATOM     39  H   TRP A   4       1.331  16.222  20.453  0.00  0.00    +0.150 HD
ATOM     40  C   GLY A   3       1.235  18.016  19.443  0.00  0.00    +0.243 C 
ATOM     41  O   GLY A   3       1.704  18.874  18.706  0.00  0.00    -0.273 OA
BRANCH  40  42
ATOM     42  CA  GLY A   3      -0.063  18.298  20.204  0.00  0.00    +0.176 C 
BRANCH  42  43
ATOM     43  N   GLY A   3       0.112  19.558  20.893  0.00  0.00    -0.295 N 
ATOM     44  C   ALA A   2      -0.843  19.994  21.737  0.00  0.00    +0.241 C 
ATOM     45  O   ALA A   2      -1.863  19.360  21.945  0.00  0.00    -0.273 OA
ATOM     46  H   GLY A   3       0.970  20.124  20.738  0.00  0.00    +0.150 HD
BRANCH  44  47
ATOM     47  CA  ALA A   2      -0.578  21.325  22.395  0.00  0.00    +0.149 C 
ATOM     48  CB  ALA A   2       0.535  21.141  23.417  0.00  0.00    +0.031 C 
BRANCH  47  49
ATOM     49  N   ALA A   2      -1.755  21.862  23.093  0.00  0.00    -0.297 N 
ATOM     50  H   ALA A   2      -2.468  21.217  23.490  0.00  0.00    +0.150 HD
ATOM     51  C   ARG A   1      -1.902  23.177  23.213  0.00  0.00    +0.238 C 
ATOM     52  O   ARG A   1      -1.063  23.988  22.792  0.00  0.00    -0.274 OA
BRANCH  51  53
ATOM     53  CA  ARG A   1      -3.116  23.695  23.984  0.00  0.00    +0.145 C 
BRANCH  53  54
ATOM     54  N   ARG A   1      -2.635  24.846  24.724  0.00  0.00    -0.238 NA
ATOM     55  H   ARG A   1      -3.090  25.769  24.577  0.00  0.00    +0.142 HD
ENDBRANCH  53  54
BRANCH  53  56
ATOM     56  CB  ARG A   1      -4.272  24.155  23.096  0.00  0.00    +0.030 C 
BRANCH  56  57
ATOM     57  CG  ARG A   1      -4.869  23.124  22.135  0.00  0.00    +0.045 C 
BRANCH  57  58
ATOM     58  CD  ARG A   1      -4.149  23.344  20.767  0.00  0.00    +0.174 C 
BRANCH  58  59
ATOM     59  NE  ARG A   1      -3.806  22.023  20.311  0.00  0.00    -0.265 N 
ATOM     60  HE  ARG A   1      -4.197  21.208  20.825  0.00  0.00    +0.259 HD
ATOM     61  CZ  ARG A   1      -3.012  21.787  19.262  0.00  0.00    +0.342 C 
ATOM     62  NH2 ARG A   1      -2.818  20.492  19.054  0.00  0.00    -0.292 N 
ATOM     63 HH21 ARG A   1      -3.266  19.792  19.679  0.00  0.00    +0.255 HD
ATOM     64 HH22 ARG A   1      -2.217  20.176  18.266  0.00  0.00    +0.255 HD
ATOM     65  NH1 ARG A   1      -2.560  22.774  18.490  0.00  0.00    -0.292 N 
ATOM     66 HH11 ARG A   1      -2.824  23.758  18.697  0.00  0.00    +0.255 HD
ATOM     67 HH12 ARG A   1      -1.943  22.560  17.680  0.00  0.00    +0.255 HD
ENDBRANCH  58  59
ENDBRANCH  57  58
ENDBRANCH  56  57
ENDBRANCH  53  56
ENDBRANCH  51  53
ENDBRANCH  47  49
ENDBRANCH  44  47
ENDBRANCH  42  43
ENDBRANCH  40  42
ENDBRANCH  37  38
BRANCH  37  68
ATOM     68  CB  TRP A   4       4.112  16.221  20.110  0.00  0.00    +0.057 C 
BRANCH  68  69
ATOM     69  CG  TRP A   4       5.490  15.937  19.510  0.00  0.00    -0.002 A 
ATOM     70  CD1 TRP A   4       6.139  14.729  19.485  0.00  0.00    +0.068 A 
ATOM     71  NE1 TRP A   4       7.379  14.854  18.844  0.00  0.00    -0.352 N 
ATOM     72  HE1 TRP A   4       8.054  14.088  18.645  0.00  0.00    +0.166 HD
ATOM     73  CE2 TRP A   4       7.531  16.183  18.529  0.00  0.00    +0.056 A 
ATOM     74  CZ2 TRP A   4       8.637  16.799  17.933  0.00  0.00    +0.017 A 
ATOM     75  CH2 TRP A   4       8.526  18.154  17.740  0.00  0.00    +0.001 A 
ATOM     76  CZ3 TRP A   4       7.384  18.908  18.121  0.00  0.00    +0.000 A 
ATOM     77  CE3 TRP A   4       6.285  18.274  18.741  0.00  0.00    +0.001 A 
ATOM     78  CD2 TRP A   4       6.386  16.885  18.928  0.00  0.00    +0.013 A 
ENDBRANCH  68  69
ENDBRANCH  37  68
ENDBRANCH  34  37
ENDBRANCH   1  33
BRANCH   1  79
ATOM     79  CB  CYS A   5       2.560  14.350  14.767  0.00  0.00    +0.098 C 
BRANCH  79  80
ATOM     80  SG  CYS A   5       0.817  14.863  14.841  0.00  0.00    -0.080 S 
BRANCH  80  81
ATOM     81  SG  GLY A   3      -0.105  13.070  15.183  0.00  0.00    -0.080 S 
BRANCH  81  82
ATOM     82  CB  GLY A   3      -0.604  13.023  16.895  0.00  0.00    +0.098 C 
BRANCH  82  83
ATOM     83  CA  GLY A   3       0.129  12.066  17.831  0.00  0.00    +0.160 C 
BRANCH  83  84
ATOM     84  C   GLY A   3      -0.597  12.101  19.180  0.00  0.00    +0.242 C 
ATOM     85  N   TRP A   4      -0.185  12.989  20.039  0.00  0.00    -0.295 N 
ATOM     86  H   TRP A   4       0.606  13.620  19.798  0.00  0.00    +0.150 HD
ATOM     87  O   GLY A   3      -1.570  11.320  19.280  0.00  0.00    -0.273 OA
BRANCH  85  88
ATOM     88  CA  TRP A   4      -0.833  13.096  21.333  0.00  0.00    +0.176 C 
BRANCH  88  89
ATOM     89  C   TRP A   4      -1.323  14.525  21.522  0.00  0.00    +0.243 C 
ATOM     90  N   CYS A   5      -2.599  14.692  21.912  0.00  0.00    -0.297 N 
ATOM     91  H   CYS A   5      -3.216  13.859  21.996  0.00  0.00    +0.150 HD
ATOM     92  O   TRP A   4      -0.506  15.426  21.339  0.00  0.00    -0.273 OA
BRANCH  90  93
ATOM     93  CA  CYS A   5      -3.143  16.017  22.222  0.00  0.00    +0.153 C 
BRANCH  93  94
ATOM     94  C   CYS A   5      -2.983  16.211  23.733  0.00  0.00    +0.241 C 
ATOM     95  O   CYS A   5      -3.275  15.290  24.522  0.00  0.00    -0.273 OA
ATOM     96  N   ALA A   6      -2.475  17.363  24.146  0.00  0.00    -0.298 N 
ATOM     97  H   ALA A   6      -2.236  18.107  23.460  0.00  0.00    +0.150 HD
BRANCH  96  98
ATOM     98  CA  ALA A   6      -2.254  17.578  25.568  0.00  0.00    +0.141 C 
BRANCH  98  99
ATOM     99  C   ALA A   6      -2.271  19.051  25.901  0.00  0.00    +0.227 C 
ATOM    100  O   ALA A   6      -2.206  19.877  24.987  0.00  0.00    -0.286 OA
ENDBRANCH  98  99
BRANCH  98 101
ATOM    101  CB  ALA A   6      -0.898  16.985  26.002  0.00  0.00    +0.054 C 
BRANCH 101 102
ATOM    102  CG  ALA A   6       0.356  17.501  25.345  0.00  0.00    -0.020 A 
ATOM    103  CD2 ALA A   6       1.210  18.352  26.067  0.00  0.00    -0.001 A 
ATOM    104  CE2 ALA A   6       2.413  18.805  25.524  0.00  0.00    +0.036 A 
ATOM    105  CZ  ALA A   6       2.727  18.437  24.233  0.00  0.00    +0.134 A 
ATOM    106  CE1 ALA A   6       1.890  17.612  23.486  0.00  0.00    +0.036 A 
ATOM    107  CD1 ALA A   6       0.707  17.147  24.045  0.00  0.00    -0.001 A 
BRANCH 105 108
ATOM    108  OH  ALA A   6       3.889  18.884  23.637  0.00  0.00    -0.506 OA
ATOM    109  HH  ALA A   6       4.668  18.576  24.164  0.00  0.00    +0.292 HD
ENDBRANCH 105 108
ENDBRANCH 101 102
ENDBRANCH  98 101
ENDBRANCH  96  98
ENDBRANCH  93  94
BRANCH  93 110
ATOM    110  CB  CYS A   5      -4.644  16.032  21.892  0.00  0.00    +0.055 C 
BRANCH 110 111
ATOM    111  CG  CYS A   5      -5.311  17.390  21.855  0.00  0.00    -0.020 A 
ATOM    112  CD2 CYS A   5      -5.620  18.120  23.002  0.00  0.00    -0.001 A 
ATOM    113  CE2 CYS A   5      -6.262  19.354  22.936  0.00  0.00    +0.036 A 
ATOM    114  CZ  CYS A   5      -6.645  19.841  21.697  0.00  0.00    +0.134 A 
ATOM    115  CE1 CYS A   5      -6.346  19.141  20.548  0.00  0.00    +0.036 A 
ATOM    116  CD1 CYS A   5      -5.700  17.897  20.619  0.00  0.00    -0.001 A 
BRANCH 114 117
ATOM    117  OH  CYS A   5      -7.247  21.066  21.510  0.00  0.00    -0.506 OA
ATOM    118  HH  CYS A   5      -7.419  21.485  22.390  0.00  0.00    +0.292 HD
ENDBRANCH 114 117
ENDBRANCH 110 111
ENDBRANCH  93 110
ENDBRANCH  90  93
ENDBRANCH  88  89
BRANCH  88 119
ATOM    119  CB  TRP A   4       0.149  12.681  22.458  0.00  0.00    +0.137 C 
ATOM    120  CG2 TRP A   4      -0.591  12.834  23.806  0.00  0.00    +0.034 C 
BRANCH 119 121
ATOM    121  OG1 TRP A   4       0.476  11.298  22.311  0.00  0.00    -0.382 OA
ATOM    122  HG1 TRP A   4       1.103  11.030  23.029  0.00  0.00    +0.210 HD
ENDBRANCH 119 121
ENDBRANCH  88 119
ENDBRANCH  85  88
ENDBRANCH  83  84
BRANCH  83 124
ATOM    123  C   ALA A   2       1.168  10.173  16.718  0.00  0.00    +0.241 C 
ATOM    124  N   GLY A   3       0.096  10.691  17.329  0.00  0.00    -0.296 N 
ATOM    125  H   GLY A   3      -0.762  10.116  17.448  0.00  0.00    +0.150 HD
ATOM    126  O   ALA A   2       2.241  10.802  16.577  0.00  0.00    -0.273 OA
BRANCH 123 127
ATOM    127  CA  ALA A   2       1.054   8.735  16.225  0.00  0.00    +0.149 C 
BRANCH 127 130
ATOM    128  C   ARG A   1      -1.144   8.569  15.207  0.00  0.00    +0.239 C 
ATOM    129  O   ARG A   1      -1.680   8.509  16.349  0.00  0.00    -0.274 OA
ATOM    130  N   ALA A   2       0.179   8.651  15.048  0.00  0.00    -0.297 N 
ATOM    131  H   ALA A   2       0.589   8.655  14.092  0.00  0.00    +0.150 HD
BRANCH 128 132
ATOM    132  CA  ARG A   1      -2.010   8.442  13.983  0.00  0.00    +0.149 C 
BRANCH 132 133
ATOM    133  N   ARG A   1      -2.877   7.242  14.142  0.00  0.00    -0.238 NA
ATOM    134  H   ARG A   1      -3.164   6.929  15.091  0.00  0.00    +0.142 HD
ENDBRANCH 132 133
BRANCH 132 135
ATOM    135  CB  ARG A   1      -2.964   9.639  13.815  0.00  0.00    +0.053 C 
BRANCH 135 136
ATOM    136  CG  ARG A   1      -2.429  10.914  13.227  0.00  0.00    -0.020 A 
ATOM    137  CD2 ARG A   1      -3.166  12.098  13.440  0.00  0.00    -0.001 A 
ATOM    138  CE2 ARG A   1      -2.747  13.313  12.894  0.00  0.00    +0.036 A 
ATOM    139  CZ  ARG A   1      -1.596  13.338  12.146  0.00  0.00    +0.134 A 
ATOM    140  CE1 ARG A   1      -0.846  12.196  11.952  0.00  0.00    +0.036 A 
ATOM    141  CD1 ARG A   1      -1.247  10.985  12.477  0.00  0.00    -0.001 A 
BRANCH 139 142
ATOM    142  OH  ARG A   1      -1.200  14.541  11.595  0.00  0.00    -0.506 OA
ATOM    143  HH  ARG A   1      -0.361  14.409  11.086  0.00  0.00    +0.292 HD
ENDBRANCH 139 142
ENDBRANCH 135 136
ENDBRANCH 132 135
ENDBRANCH 128 132
ENDBRANCH 127 130
BRANCH 127 144
ATOM    144  CB  ALA A   2       2.457   8.179  15.853  0.00  0.00    +0.029 C 
BRANCH 144 145
ATOM    145  CG  ALA A   2       2.427   6.656  15.686  0.00  0.00    +0.002 C 
ATOM    146  CD2 ALA A   2       2.221   6.029  17.071  0.00  0.00    +0.000 C 
ATOM    147  CD1 ALA A   2       3.684   6.082  15.032  0.00  0.00    +0.000 C 
ENDBRANCH 144 145
ENDBRANCH 127 144
ENDBRANCH 123 127
ENDBRANCH  83 124
ENDBRANCH  82  83
ENDBRANCH  81  82
ENDBRANCH  80  81
ENDBRANCH  79  80
ENDBRANCH   1  79
TORSDOF 57
REMARK  Name = ../refined-set-2016/1b3f/1b3f_pocket.pdb
REMARK  269 active torsions:
REMARK  status: ('A' for Active; 'I' for Inactive)
REMARK    1  A    between atoms: _1  and  _3
REMARK    2  A    between atoms: _3  and  _4
REMARK    3  A    between atoms: _3  and  _6
REMARK    4  A    between atoms: _6  and  _7
REMARK    5  A    between atoms: _12  and  _14
REMARK    6  A    between atoms: _14  and  _15
REMARK    7  A    between atoms: _17  and  _19
REMARK    8  A    between atoms: _19  and  _20
REMARK    9  A    between atoms: _19  and  _22
REMARK   10  A    between atoms: _22  and  _23
REMARK   11  A    between atoms: _25  and  _27
REMARK   12  A    between atoms: _27  and  _28
REMARK   13  A    between atoms: _27  and  _30
REMARK   14  A    between atoms: _30  and  _31
REMARK   15  A    between atoms: _31  and  _32
REMARK   16  A    between atoms: _37  and  _39
REMARK   17  A    between atoms: _39  and  _40
REMARK   18  A    between atoms: _39  and  _42
REMARK   19  A    between atoms: _42  and  _43
REMARK   20  A    between atoms: _46  and  _48
REMARK   21  A    between atoms: _48  and  _49
REMARK   22  A    between atoms: _48  and  _51
REMARK   23  A    between atoms: _52  and  _53
REMARK   24  A    between atoms: _56  and  _58
REMARK   25  A    between atoms: _58  and  _59
REMARK   26  A    between atoms: _61  and  _63
REMARK   27  A    between atoms: _63  and  _64
REMARK   28  A    between atoms: _63  and  _66
REMARK   29  A    between atoms: _70  and  _71
REMARK   30  A    between atoms: _76  and  _78
REMARK   31  A    between atoms: _78  and  _79
REMARK   32  A    between atoms: _78  and  _81
REMARK   33  A    between atoms: _81  and  _82
REMARK   34  A    between atoms: _82  and  _83
REMARK   35  A    between atoms: _86  and  _88
REMARK   36  A    between atoms: _88  and  _89
REMARK   37  A    between atoms: _88  and  _91
REMARK   38  A    between atoms: _91  and  _92
REMARK   39  A    between atoms: _94  and  _96
REMARK   40  A    between atoms: _96  and  _97
REMARK   41  A    between atoms: _96  and  _99
REMARK   42  A    between atoms: _99  and  _100
REMARK   43  A    between atoms: _105  and  _107
REMARK   44  A    between atoms: _107  and  _108
REMARK   45  A    between atoms: _107  and  _110
REMARK   46  A    between atoms: _110  and  _111
REMARK   47  A    between atoms: _111  and  _112
REMARK   48  A    between atoms: _112  and  _113
REMARK   49  A    between atoms: _123  and  _124
REMARK   50  A    between atoms: _129  and  _131
REMARK   51  A    between atoms: _131  and  _132
REMARK   52  A    between atoms: _131  and  _134
REMARK   53  A    between atoms: _134  and  _135
REMARK   54  A    between atoms: _140  and  _141
REMARK   55  A    between atoms: _143  and  _145
REMARK   56  A    between atoms: _145  and  _146
REMARK   57  A    between atoms: _145  and  _148
REMARK   58  A    between atoms: _148  and  _149
REMARK   59  A    between atoms: _154  and  _155
REMARK   60  A    between atoms: _157  and  _159
REMARK   61  A    between atoms: _159  and  _160
REMARK   62  A    between atoms: _159  and  _162
REMARK   63  A    between atoms: _165  and  _167
REMARK   64  A    between atoms: _167  and  _168
REMARK   65  A    between atoms: _167  and  _170
REMARK   66  A    between atoms: _170  and  _171
REMARK   67  A    between atoms: _177  and  _178
REMARK   68  A    between atoms: _183  and  _185
REMARK   69  A    between atoms: _185  and  _186
REMARK   70  A    between atoms: _185  and  _188
REMARK   71  A    between atoms: _188  and  _189
REMARK   72  A    between atoms: _191  and  _193
REMARK   73  A    between atoms: _193  and  _194
REMARK   74  A    between atoms: _193  and  _196
REMARK   75  A    between atoms: _196  and  _197
REMARK   76  A    between atoms: _197  and  _198
REMARK   77  A    between atoms: _201  and  _203
REMARK   78  A    between atoms: _203  and  _204
REMARK   79  A    between atoms: _203  and  _206
REMARK   80  A    between atoms: _206  and  _207
REMARK   81  A    between atoms: _212  and  _213
REMARK   82  A    between atoms: _215  and  _217
REMARK   83  A    between atoms: _217  and  _218
REMARK   84  A    between atoms: _217  and  _220
REMARK   85  A    between atoms: _220  and  _221
REMARK   86  A    between atoms: _226  and  _228
REMARK   87  A    between atoms: _228  and  _229
REMARK   88  A    between atoms: _228  and  _231
REMARK   89  A    between atoms: _231  and  _232
REMARK   90  A    between atoms: _237  and  _239
REMARK   91  A    between atoms: _239  and  _240
REMARK   92  A    between atoms: _239  and  _242
REMARK   93  A    between atoms: _242  and  _243
REMARK   94  A    between atoms: _243  and  _244
REMARK   95  A    between atoms: _246  and  _248
REMARK   96  A    between atoms: _248  and  _249
REMARK   97  A    between atoms: _248  and  _251
REMARK   98  A    between atoms: _251  and  _252
REMARK   99  A    between atoms: _257  and  _258
REMARK  100  A    between atoms: _260  and  _262
REMARK  101  A    between atoms: _262  and  _263
REMARK  102  A    between atoms: _262  and  _265
REMARK  103  A    between atoms: _265  and  _266
REMARK  104  A    between atoms: _269  and  _271
REMARK  105  A    between atoms: _271  and  _272
REMARK  106  A    between atoms: _271  and  _274
REMARK  107  A    between atoms: _274  and  _275
REMARK  108  A    between atoms: _275  and  _496
REMARK  109  A    between atoms: _276  and  _278
REMARK  110  A    between atoms: _278  and  _279
REMARK  111  A    between atoms: _278  and  _281
REMARK  112  A    between atoms: _281  and  _282
REMARK  113  A    between atoms: _285  and  _287
REMARK  114  A    between atoms: _287  and  _288
REMARK  115  A    between atoms: _287  and  _290
REMARK  116  A    between atoms: _290  and  _291
REMARK  117  A    between atoms: _296  and  _297
REMARK  118  A    between atoms: _299  and  _301
REMARK  119  A    between atoms: _301  and  _302
REMARK  120  A    between atoms: _301  and  _304
REMARK  121  A    between atoms: _304  and  _305
REMARK  122  A    between atoms: _310  and  _311
REMARK  123  A    between atoms: _313  and  _315
REMARK  124  A    between atoms: _315  and  _316
REMARK  125  A    between atoms: _315  and  _318
REMARK  126  A    between atoms: _318  and  _319
REMARK  127  A    between atoms: _319  and  _320
REMARK  128  A    between atoms: _323  and  _325
REMARK  129  A    between atoms: _325  and  _326
REMARK  130  A    between atoms: _325  and  _328
REMARK  131  A    between atoms: _328  and  _329
REMARK  132  A    between atoms: _329  and  _330
REMARK  133  A    between atoms: _330  and  _331
REMARK  134  A    between atoms: _331  and  _332
REMARK  135  A    between atoms: _336  and  _338
REMARK  136  A    between atoms: _338  and  _339
REMARK  137  A    between atoms: _338  and  _341
REMARK  138  A    between atoms: _341  and  _342
REMARK  139  A    between atoms: _347  and  _348
REMARK  140  A    between atoms: _350  and  _352
REMARK  141  A    between atoms: _352  and  _353
REMARK  142  A    between atoms: _352  and  _355
REMARK  143  A    between atoms: _355  and  _356
REMARK  144  A    between atoms: _361  and  _363
REMARK  145  A    between atoms: _363  and  _364
REMARK  146  A    between atoms: _363  and  _366
REMARK  147  A    between atoms: _366  and  _367
REMARK  148  A    between atoms: _370  and  _372
REMARK  149  A    between atoms: _372  and  _373
REMARK  150  A    between atoms: _372  and  _375
REMARK  151  A    between atoms: _375  and  _376
REMARK  152  A    between atoms: _381  and  _383
REMARK  153  A    between atoms: _383  and  _384
REMARK  154  A    between atoms: _383  and  _386
REMARK  155  A    between atoms: _386  and  _387
REMARK  156  A    between atoms: _397  and  _399
REMARK  157  A    between atoms: _399  and  _400
REMARK  158  A    between atoms: _399  and  _402
REMARK  159  A    between atoms: _402  and  _403
REMARK  160  A    between atoms: _409  and  _411
REMARK  161  A    between atoms: _411  and  _412
REMARK  162  A    between atoms: _411  and  _414
REMARK  163  A    between atoms: _414  and  _415
REMARK  164  A    between atoms: _418  and  _420
REMARK  165  A    between atoms: _420  and  _421
REMARK  166  A    between atoms: _420  and  _423
REMARK  167  A    between atoms: _423  and  _424
REMARK  168  A    between atoms: _424  and  _425
REMARK  169  A    between atoms: _425  and  _426
REMARK  170  A    between atoms: _435  and  _437
REMARK  171  A    between atoms: _437  and  _438
REMARK  172  A    between atoms: _437  and  _440
REMARK  173  A    between atoms: _440  and  _441
REMARK  174  A    between atoms: _446  and  _448
REMARK  175  A    between atoms: _448  and  _449
REMARK  176  A    between atoms: _448  and  _451
REMARK  177  A    between atoms: _451  and  _452
REMARK  178  A    between atoms: _452  and  _453
REMARK  179  A    between atoms: _453  and  _454
REMARK  180  A    between atoms: _463  and  _465
REMARK  181  A    between atoms: _465  and  _466
REMARK  182  A    between atoms: _469  and  _471
REMARK  183  A    between atoms: _471  and  _472
REMARK  184  A    between atoms: _474  and  _476
REMARK  185  A    between atoms: _476  and  _477
REMARK  186  A    between atoms: _476  and  _479
REMARK  187  A    between atoms: _479  and  _480
REMARK  188  A    between atoms: _490  and  _492
REMARK  189  A    between atoms: _492  and  _493
REMARK  190  A    between atoms: _492  and  _495
REMARK  191  A    between atoms: _495  and  _496
REMARK  192  A    between atoms: _497  and  _499
REMARK  193  A    between atoms: _499  and  _500
REMARK  194  A    between atoms: _503  and  _505
REMARK  195  A    between atoms: _505  and  _506
REMARK  196  A    between atoms: _505  and  _508
REMARK  197  A    between atoms: _508  and  _509
REMARK  198  A    between atoms: _512  and  _514
REMARK  199  A    between atoms: _514  and  _515
REMARK  200  A    between atoms: _514  and  _517
REMARK  201  A    between atoms: _517  and  _518
REMARK  202  A    between atoms: _523  and  _524
REMARK  203  A    between atoms: _526  and  _528
REMARK  204  A    between atoms: _528  and  _529
REMARK  205  A    between atoms: _528  and  _531
REMARK  206  A    between atoms: _531  and  _532
REMARK  207  A    between atoms: _534  and  _536
REMARK  208  A    between atoms: _536  and  _537
REMARK  209  A    between atoms: _536  and  _539
REMARK  210  A    between atoms: _539  and  _540
REMARK  211  A    between atoms: _546  and  _548
REMARK  212  A    between atoms: _548  and  _549
REMARK  213  A    between atoms: _548  and  _551
REMARK  214  A    between atoms: _551  and  _552
REMARK  215  A    between atoms: _555  and  _557
REMARK  216  A    between atoms: _557  and  _558
REMARK  217  A    between atoms: _557  and  _560
REMARK  218  A    between atoms: _560  and  _561
REMARK  219  A    between atoms: _563  and  _565
REMARK  220  A    between atoms: _565  and  _566
REMARK  221  A    between atoms: _565  and  _568
REMARK  222  A    between atoms: _568  and  _569
REMARK  223  A    between atoms: _574  and  _576
REMARK  224  A    between atoms: _576  and  _577
REMARK  225  A    between atoms: _576  and  _579
REMARK  226  A    between atoms: _579  and  _580
REMARK  227  A    between atoms: _585  and  _587
REMARK  228  A    between atoms: _587  and  _588
REMARK  229  A    between atoms: _587  and  _590
REMARK  230  A    between atoms: _590  and  _591
REMARK  231  A    between atoms: _594  and  _596
REMARK  232  A    between atoms: _596  and  _597
REMARK  233  A    between atoms: _600  and  _602
REMARK  234  A    between atoms: _602  and  _603
REMARK  235  A    between atoms: _602  and  _605
REMARK  236  A    between atoms: _605  and  _606
REMARK  237  A    between atoms: _611  and  _612
REMARK  238  A    between atoms: _614  and  _616
REMARK  239  A    between atoms: _616  and  _617
REMARK  240  A    between atoms: _616  and  _619
REMARK  241  A    between atoms: _619  and  _620
REMARK  242  A    between atoms: _625  and  _626
REMARK  243  A    between atoms: _628  and  _630
REMARK  244  A    between atoms: _630  and  _631
REMARK  245  A    between atoms: _630  and  _633
REMARK  246  A    between atoms: _636  and  _638
REMARK  247  A    between atoms: _638  and  _639
REMARK  248  A    between atoms: _638  and  _641
REMARK  249  A    between atoms: _641  and  _642
REMARK  250  A    between atoms: _647  and  _649
REMARK  251  A    between atoms: _649  and  _650
REMARK  252  A    between atoms: _653  and  _655
REMARK  253  A    between atoms: _655  and  _656
REMARK  254  A    between atoms: _655  and  _658
REMARK  255  A    between atoms: _658  and  _659
REMARK  256  A    between atoms: _659  and  _660
REMARK  257  A    between atoms: _660  and  _661
REMARK  258  A    between atoms: _670  and  _672
REMARK  259  A    between atoms: _672  and  _673
REMARK  260  A    between atoms: _672  and  _675
REMARK  261  A    between atoms: _675  and  _676
REMARK  262  A    between atoms: _679  and  _681
REMARK  263  A    between atoms: _681  and  _682
REMARK  264  A    between atoms: _681  and  _684
REMARK  265  A    between atoms: _684  and  _685
REMARK  266  A    between atoms: _688  and  _690
REMARK  267  A    between atoms: _690  and  _691
REMARK  268  A    between atoms: _690  and  _693
REMARK  269  A    between atoms: _693  and  _694
REMARK                            x       y       z     vdW  Elec       q    Type
REMARK                         _______ _______ _______ _____ _____    ______ ____
ROOT
ATOM      1  CA  GLU A   1       1.386  22.017  27.767  0.00  0.00    +0.134 C 
ENDROOT
BRANCH   1   2
ATOM      2  N   GLU A   1       0.003  21.716  27.438  0.00  0.00    -0.239 NA
ATOM      3  H   GLU A   1      -0.397  22.192  26.604  0.00  0.00    +0.142 HD
ENDBRANCH   1   2
BRANCH   1   4
ATOM      4  C   GLU A   1       1.441  23.011  28.922  0.00  0.00    +0.224 C 
ATOM      5  O   GLU A   1       0.848  24.088  28.826  0.00  0.00    -0.287 OA
ENDBRANCH   1   4
BRANCH   1   6
ATOM      6  CB  GLU A   1       2.137  22.572  26.559  0.00  0.00    +0.037 C 
BRANCH   6   7
ATOM      7  CG  GLU A   1       3.592  23.073  26.841  0.00  0.00    +0.116 C 
BRANCH   7   8
ATOM      8  CD  GLU A   1       4.094  23.497  25.472  0.00  0.00    +0.365 C 
ATOM      9  OE2 GLU A   1       3.815  24.654  25.093  0.00  0.00    -0.246 OA
ATOM     10  OE1 GLU A   1       4.680  22.647  24.787  0.00  0.00    -0.246 OA
ENDBRANCH   7   8
ENDBRANCH   6   7
ENDBRANCH   1   6
TORSDOF 5
REMARK  Name = ../refined-set-2016/1b3f/1b3f_pocket.pdb
REMARK  269 active torsions:
REMARK  status: ('A' for Active; 'I' for Inactive)
REMARK    1  A    between atoms: _1  and  _3
REMARK    2  A    between atoms: _3  and  _4
REMARK    3  A    between atoms: _3  and  _6
REMARK    4  A    between atoms: _6  and  _7
REMARK    5  A    between atoms: _12  and  _14
REMARK    6  A    between atoms: _14  and  _15
REMARK    7  A    between atoms: _17  and  _19
REMARK    8  A    between atoms: _19  and  _20
REMARK    9  A    between atoms: _19  and  _22
REMARK   10  A    between atoms: _22  and  _23
REMARK   11  A    between atoms: _25  and  _27
REMARK   12  A    between atoms: _27  and  _28
REMARK   13  A    between atoms: _27  and  _30
REMARK   14  A    between atoms: _30  and  _31
REMARK   15  A    between atoms: _31  and  _32
REMARK   16  A    between atoms: _37  and  _39
REMARK   17  A    between atoms: _39  and  _40
REMARK   18  A    between atoms: _39  and  _42
REMARK   19  A    between atoms: _42  and  _43
REMARK   20  A    between atoms: _46  and  _48
REMARK   21  A    between atoms: _48  and  _49
REMARK   22  A    between atoms: _48  and  _51
REMARK   23  A    between atoms: _52  and  _53
REMARK   24  A    between atoms: _56  and  _58
REMARK   25  A    between atoms: _58  and  _59
REMARK   26  A    between atoms: _61  and  _63
REMARK   27  A    between atoms: _63  and  _64
REMARK   28  A    between atoms: _63  and  _66
REMARK   29  A    between atoms: _70  and  _71
REMARK   30  A    between atoms: _76  and  _78
REMARK   31  A    between atoms: _78  and  _79
REMARK   32  A    between atoms: _78  and  _81
REMARK   33  A    between atoms: _81  and  _82
REMARK   34  A    between atoms: _82  and  _83
REMARK   35  A    between atoms: _86  and  _88
REMARK   36  A    between atoms: _88  and  _89
REMARK   37  A    between atoms: _88  and  _91
REMARK   38  A    between atoms: _91  and  _92
REMARK   39  A    between atoms: _94  and  _96
REMARK   40  A    between atoms: _96  and  _97
REMARK   41  A    between atoms: _96  and  _99
REMARK   42  A    between atoms: _99  and  _100
REMARK   43  A    between atoms: _105  and  _107
REMARK   44  A    between atoms: _107  and  _108
REMARK   45  A    between atoms: _107  and  _110
REMARK   46  A    between atoms: _110  and  _111
REMARK   47  A    between atoms: _111  and  _112
REMARK   48  A    between atoms: _112  and  _113
REMARK   49  A    between atoms: _123  and  _124
REMARK   50  A    between atoms: _129  and  _131
REMARK   51  A    between atoms: _131  and  _132
REMARK   52  A    between atoms: _131  and  _134
REMARK   53  A    between atoms: _134  and  _135
REMARK   54  A    between atoms: _140  and  _141
REMARK   55  A    between atoms: _143  and  _145
REMARK   56  A    between atoms: _145  and  _146
REMARK   57  A    between atoms: _145  and  _148
REMARK   58  A    between atoms: _148  and  _149
REMARK   59  A    between atoms: _154  and  _155
REMARK   60  A    between atoms: _157  and  _159
REMARK   61  A    between atoms: _159  and  _160
REMARK   62  A    between atoms: _159  and  _162
REMARK   63  A    between atoms: _165  and  _167
REMARK   64  A    between atoms: _167  and  _168
REMARK   65  A    between atoms: _167  and  _170
REMARK   66  A    between atoms: _170  and  _171
REMARK   67  A    between atoms: _177  and  _178
REMARK   68  A    between atoms: _183  and  _185
REMARK   69  A    between atoms: _185  and  _186
REMARK   70  A    between atoms: _185  and  _188
REMARK   71  A    between atoms: _188  and  _189
REMARK   72  A    between atoms: _191  and  _193
REMARK   73  A    between atoms: _193  and  _194
REMARK   74  A    between atoms: _193  and  _196
REMARK   75  A    between atoms: _196  and  _197
REMARK   76  A    between atoms: _197  and  _198
REMARK   77  A    between atoms: _201  and  _203
REMARK   78  A    between atoms: _203  and  _204
REMARK   79  A    between atoms: _203  and  _206
REMARK   80  A    between atoms: _206  and  _207
REMARK   81  A    between atoms: _212  and  _213
REMARK   82  A    between atoms: _215  and  _217
REMARK   83  A    between atoms: _217  and  _218
REMARK   84  A    between atoms: _217  and  _220
REMARK   85  A    between atoms: _220  and  _221
REMARK   86  A    between atoms: _226  and  _228
REMARK   87  A    between atoms: _228  and  _229
REMARK   88  A    between atoms: _228  and  _231
REMARK   89  A    between atoms: _231  and  _232
REMARK   90  A    between atoms: _237  and  _239
REMARK   91  A    between atoms: _239  and  _240
REMARK   92  A    between atoms: _239  and  _242
REMARK   93  A    between atoms: _242  and  _243
REMARK   94  A    between atoms: _243  and  _244
REMARK   95  A    between atoms: _246  and  _248
REMARK   96  A    between atoms: _248  and  _249
REMARK   97  A    between atoms: _248  and  _251
REMARK   98  A    between atoms: _251  and  _252
REMARK   99  A    between atoms: _257  and  _258
REMARK  100  A    between atoms: _260  and  _262
REMARK  101  A    between atoms: _262  and  _263
REMARK  102  A    between atoms: _262  and  _265
REMARK  103  A    between atoms: _265  and  _266
REMARK  104  A    between atoms: _269  and  _271
REMARK  105  A    between atoms: _271  and  _272
REMARK  106  A    between atoms: _271  and  _274
REMARK  107  A    between atoms: _274  and  _275
REMARK  108  A    between atoms: _275  and  _496
REMARK  109  A    between atoms: _276  and  _278
REMARK  110  A    between atoms: _278  and  _279
REMARK  111  A    between atoms: _278  and  _281
REMARK  112  A    between atoms: _281  and  _282
REMARK  113  A    between atoms: _285  and  _287
REMARK  114  A    between atoms: _287  and  _288
REMARK  115  A    between atoms: _287  and  _290
REMARK  116  A    between atoms: _290  and  _291
REMARK  117  A    between atoms: _296  and  _297
REMARK  118  A    between atoms: _299  and  _301
REMARK  119  A    between atoms: _301  and  _302
REMARK  120  A    between atoms: _301  and  _304
REMARK  121  A    between atoms: _304  and  _305
REMARK  122  A    between atoms: _310  and  _311
REMARK  123  A    between atoms: _313  and  _315
REMARK  124  A    between atoms: _315  and  _316
REMARK  125  A    between atoms: _315  and  _318
REMARK  126  A    between atoms: _318  and  _319
REMARK  127  A    between atoms: _319  and  _320
REMARK  128  A    between atoms: _323  and  _325
REMARK  129  A    between atoms: _325  and  _326
REMARK  130  A    between atoms: _325  and  _328
REMARK  131  A    between atoms: _328  and  _329
REMARK  132  A    between atoms: _329  and  _330
REMARK  133  A    between atoms: _330  and  _331
REMARK  134  A    between atoms: _331  and  _332
REMARK  135  A    between atoms: _336  and  _338
REMARK  136  A    between atoms: _338  and  _339
REMARK  137  A    between atoms: _338  and  _341
REMARK  138  A    between atoms: _341  and  _342
REMARK  139  A    between atoms: _347  and  _348
REMARK  140  A    between atoms: _350  and  _352
REMARK  141  A    between atoms: _352  and  _353
REMARK  142  A    between atoms: _352  and  _355
REMARK  143  A    between atoms: _355  and  _356
REMARK  144  A    between atoms: _361  and  _363
REMARK  145  A    between atoms: _363  and  _364
REMARK  146  A    between atoms: _363  and  _366
REMARK  147  A    between atoms: _366  and  _367
REMARK  148  A    between atoms: _370  and  _372
REMARK  149  A    between atoms: _372  and  _373
REMARK  150  A    between atoms: _372  and  _375
REMARK  151  A    between atoms: _375  and  _376
REMARK  152  A    between atoms: _381  and  _383
REMARK  153  A    between atoms: _383  and  _384
REMARK  154  A    between atoms: _383  and  _386
REMARK  155  A    between atoms: _386  and  _387
REMARK  156  A    between atoms: _397  and  _399
REMARK  157  A    between atoms: _399  and  _400
REMARK  158  A    between atoms: _399  and  _402
REMARK  159  A    between atoms: _402  and  _403
REMARK  160  A    between atoms: _409  and  _411
REMARK  161  A    between atoms: _411  and  _412
REMARK  162  A    between atoms: _411  and  _414
REMARK  163  A    between atoms: _414  and  _415
REMARK  164  A    between atoms: _418  and  _420
REMARK  165  A    between atoms: _420  and  _421
REMARK  166  A    between atoms: _420  and  _423
REMARK  167  A    between atoms: _423  and  _424
REMARK  168  A    between atoms: _424  and  _425
REMARK  169  A    between atoms: _425  and  _426
REMARK  170  A    between atoms: _435  and  _437
REMARK  171  A    between atoms: _437  and  _438
REMARK  172  A    between atoms: _437  and  _440
REMARK  173  A    between atoms: _440  and  _441
REMARK  174  A    between atoms: _446  and  _448
REMARK  175  A    between atoms: _448  and  _449
REMARK  176  A    between atoms: _448  and  _451
REMARK  177  A    between atoms: _451  and  _452
REMARK  178  A    between atoms: _452  and  _453
REMARK  179  A    between atoms: _453  and  _454
REMARK  180  A    between atoms: _463  and  _465
REMARK  181  A    between atoms: _465  and  _466
REMARK  182  A    between atoms: _469  and  _471
REMARK  183  A    between atoms: _471  and  _472
REMARK  184  A    between atoms: _474  and  _476
REMARK  185  A    between atoms: _476  and  _477
REMARK  186  A    between atoms: _476  and  _479
REMARK  187  A    between atoms: _479  and  _480
REMARK  188  A    between atoms: _490  and  _492
REMARK  189  A    between atoms: _492  and  _493
REMARK  190  A    between atoms: _492  and  _495
REMARK  191  A    between atoms: _495  and  _496
REMARK  192  A    between atoms: _497  and  _499
REMARK  193  A    between atoms: _499  and  _500
REMARK  194  A    between atoms: _503  and  _505
REMARK  195  A    between atoms: _505  and  _506
REMARK  196  A    between atoms: _505  and  _508
REMARK  197  A    between atoms: _508  and  _509
REMARK  198  A    between atoms: _512  and  _514
REMARK  199  A    between atoms: _514  and  _515
REMARK  200  A    between atoms: _514  and  _517
REMARK  201  A    between atoms: _517  and  _518
REMARK  202  A    between atoms: _523  and  _524
REMARK  203  A    between atoms: _526  and  _528
REMARK  204  A    between atoms: _528  and  _529
REMARK  205  A    between atoms: _528  and  _531
REMARK  206  A    between atoms: _531  and  _532
REMARK  207  A    between atoms: _534  and  _536
REMARK  208  A    between atoms: _536  and  _537
REMARK  209  A    between atoms: _536  and  _539
REMARK  210  A    between atoms: _539  and  _540
REMARK  211  A    between atoms: _546  and  _548
REMARK  212  A    between atoms: _548  and  _549
REMARK  213  A    between atoms: _548  and  _551
REMARK  214  A    between atoms: _551  and  _552
REMARK  215  A    between atoms: _555  and  _557
REMARK  216  A    between atoms: _557  and  _558
REMARK  217  A    between atoms: _557  and  _560
REMARK  218  A    between atoms: _560  and  _561
REMARK  219  A    between atoms: _563  and  _565
REMARK  220  A    between atoms: _565  and  _566
REMARK  221  A    between atoms: _565  and  _568
REMARK  222  A    between atoms: _568  and  _569
REMARK  223  A    between atoms: _574  and  _576
REMARK  224  A    between atoms: _576  and  _577
REMARK  225  A    between atoms: _576  and  _579
REMARK  226  A    between atoms: _579  and  _580
REMARK  227  A    between atoms: _585  and  _587
REMARK  228  A    between atoms: _587  and  _588
REMARK  229  A    between atoms: _587  and  _590
REMARK  230  A    between atoms: _590  and  _591
REMARK  231  A    between atoms: _594  and  _596
REMARK  232  A    between atoms: _596  and  _597
REMARK  233  A    between atoms: _600  and  _602
REMARK  234  A    between atoms: _602  and  _603
REMARK  235  A    between atoms: _602  and  _605
REMARK  236  A    between atoms: _605  and  _606
REMARK  237  A    between atoms: _611  and  _612
REMARK  238  A    between atoms: _614  and  _616
REMARK  239  A    between atoms: _616  and  _617
REMARK  240  A    between atoms: _616  and  _619
REMARK  241  A    between atoms: _619  and  _620
REMARK  242  A    between atoms: _625  and  _626
REMARK  243  A    between atoms: _628  and  _630
REMARK  244  A    between atoms: _630  and  _631
REMARK  245  A    between atoms: _630  and  _633
REMARK  246  A    between atoms: _636  and  _638
REMARK  247  A    between atoms: _638  and  _639
REMARK  248  A    between atoms: _638  and  _641
REMARK  249  A    between atoms: _641  and  _642
REMARK  250  A    between atoms: _647  and  _649
REMARK  251  A    between atoms: _649  and  _650
REMARK  252  A    between atoms: _653  and  _655
REMARK  253  A    between atoms: _655  and  _656
REMARK  254  A    between atoms: _655  and  _658
REMARK  255  A    between atoms: _658  and  _659
REMARK  256  A    between atoms: _659  and  _660
REMARK  257  A    between atoms: _660  and  _661
REMARK  258  A    between atoms: _670  and  _672
REMARK  259  A    between atoms: _672  and  _673
REMARK  260  A    between atoms: _672  and  _675
REMARK  261  A    between atoms: _675  and  _676
REMARK  262  A    between atoms: _679  and  _681
REMARK  263  A    between atoms: _681  and  _682
REMARK  264  A    between atoms: _681  and  _684
REMARK  265  A    between atoms: _684  and  _685
REMARK  266  A    between atoms: _688  and  _690
REMARK  267  A    between atoms: _690  and  _691
REMARK  268  A    between atoms: _690  and  _693
REMARK  269  A    between atoms: _693  and  _694
REMARK                            x       y       z     vdW  Elec       q    Type
REMARK                         _______ _______ _______ _____ _____    ______ ____
ROOT
ATOM      1  CG  LYS A   1     -13.206  15.381  19.663  0.00  0.00    -0.000 C 
ENDROOT
BRANCH   1   2
ATOM      2  CB  LYS A   1     -13.929  15.305  21.008  0.00  0.00    +0.025 C 
BRANCH   2   3
ATOM      3  CA  LYS A   1     -15.454  15.285  20.877  0.00  0.00    +0.133 C 
BRANCH   3   4
ATOM      4  N   LYS A   1     -16.065  15.444  22.198  0.00  0.00    -0.239 NA
ATOM      5  H   LYS A   1     -15.777  14.817  22.976  0.00  0.00    +0.142 HD
ENDBRANCH   3   4
BRANCH   3   6
ATOM      6  C   LYS A   1     -15.959  14.077  20.121  0.00  0.00    +0.224 C 
ATOM      7  O   LYS A   1     -16.420  14.187  18.970  0.00  0.00    -0.287 OA
ENDBRANCH   3   6
ENDBRANCH   2   3
ENDBRANCH   1   2
BRANCH   1   8
ATOM      8  CD  LYS A   1     -11.751  15.724  19.847  0.00  0.00    -0.024 C 
BRANCH   8   9
ATOM      9  CE  LYS A   1     -11.005  15.859  18.529  0.00  0.00    -0.086 C 
BRANCH   9  10
ATOM     10  NZ  LYS A   1     -10.599  14.586  17.914  0.00  0.00    +0.380 N 
ATOM     11  HZ1 LYS A   1      -9.969  14.074  18.564  0.00  0.00    -0.089 HD
ATOM     12  HZ2 LYS A   1     -11.443  14.010  17.722  0.00  0.00    -0.089 HD
ATOM     13  HZ3 LYS A   1     -10.099  14.777  17.022  0.00  0.00    -0.089 HD
ENDBRANCH   9  10
ENDBRANCH   8   9
ENDBRANCH   1   8
TORSDOF 7
REMARK  Name = ../refined-set-2016/1b3f/1b3f_pocket.pdb
REMARK  269 active torsions:
REMARK  status: ('A' for Active; 'I' for Inactive)
REMARK    1  A    between atoms: _1  and  _3
REMARK    2  A    between atoms: _3  and  _4
REMARK    3  A    between atoms: _3  and  _6
REMARK    4  A    between atoms: _6  and  _7
REMARK    5  A    between atoms: _12  and  _14
REMARK    6  A    between atoms: _14  and  _15
REMARK    7  A    between atoms: _17  and  _19
REMARK    8  A    between atoms: _19  and  _20
REMARK    9  A    between atoms: _19  and  _22
REMARK   10  A    between atoms: _22  and  _23
REMARK   11  A    between atoms: _25  and  _27
REMARK   12  A    between atoms: _27  and  _28
REMARK   13  A    between atoms: _27  and  _30
REMARK   14  A    between atoms: _30  and  _31
REMARK   15  A    between atoms: _31  and  _32
REMARK   16  A    between atoms: _37  and  _39
REMARK   17  A    between atoms: _39  and  _40
REMARK   18  A    between atoms: _39  and  _42
REMARK   19  A    between atoms: _42  and  _43
REMARK   20  A    between atoms: _46  and  _48
REMARK   21  A    between atoms: _48  and  _49
REMARK   22  A    between atoms: _48  and  _51
REMARK   23  A    between atoms: _52  and  _53
REMARK   24  A    between atoms: _56  and  _58
REMARK   25  A    between atoms: _58  and  _59
REMARK   26  A    between atoms: _61  and  _63
REMARK   27  A    between atoms: _63  and  _64
REMARK   28  A    between atoms: _63  and  _66
REMARK   29  A    between atoms: _70  and  _71
REMARK   30  A    between atoms: _76  and  _78
REMARK   31  A    between atoms: _78  and  _79
REMARK   32  A    between atoms: _78  and  _81
REMARK   33  A    between atoms: _81  and  _82
REMARK   34  A    between atoms: _82  and  _83
REMARK   35  A    between atoms: _86  and  _88
REMARK   36  A    between atoms: _88  and  _89
REMARK   37  A    between atoms: _88  and  _91
REMARK   38  A    between atoms: _91  and  _92
REMARK   39  A    between atoms: _94  and  _96
REMARK   40  A    between atoms: _96  and  _97
REMARK   41  A    between atoms: _96  and  _99
REMARK   42  A    between atoms: _99  and  _100
REMARK   43  A    between atoms: _105  and  _107
REMARK   44  A    between atoms: _107  and  _108
REMARK   45  A    between atoms: _107  and  _110
REMARK   46  A    between atoms: _110  and  _111
REMARK   47  A    between atoms: _111  and  _112
REMARK   48  A    between atoms: _112  and  _113
REMARK   49  A    between atoms: _123  and  _124
REMARK   50  A    between atoms: _129  and  _131
REMARK   51  A    between atoms: _131  and  _132
REMARK   52  A    between atoms: _131  and  _134
REMARK   53  A    between atoms: _134  and  _135
REMARK   54  A    between atoms: _140  and  _141
REMARK   55  A    between atoms: _143  and  _145
REMARK   56  A    between atoms: _145  and  _146
REMARK   57  A    between atoms: _145  and  _148
REMARK   58  A    between atoms: _148  and  _149
REMARK   59  A    between atoms: _154  and  _155
REMARK   60  A    between atoms: _157  and  _159
REMARK   61  A    between atoms: _159  and  _160
REMARK   62  A    between atoms: _159  and  _162
REMARK   63  A    between atoms: _165  and  _167
REMARK   64  A    between atoms: _167  and  _168
REMARK   65  A    between atoms: _167  and  _170
REMARK   66  A    between atoms: _170  and  _171
REMARK   67  A    between atoms: _177  and  _178
REMARK   68  A    between atoms: _183  and  _185
REMARK   69  A    between atoms: _185  and  _186
REMARK   70  A    between atoms: _185  and  _188
REMARK   71  A    between atoms: _188  and  _189
REMARK   72  A    between atoms: _191  and  _193
REMARK   73  A    between atoms: _193  and  _194
REMARK   74  A    between atoms: _193  and  _196
REMARK   75  A    between atoms: _196  and  _197
REMARK   76  A    between atoms: _197  and  _198
REMARK   77  A    between atoms: _201  and  _203
REMARK   78  A    between atoms: _203  and  _204
REMARK   79  A    between atoms: _203  and  _206
REMARK   80  A    between atoms: _206  and  _207
REMARK   81  A    between atoms: _212  and  _213
REMARK   82  A    between atoms: _215  and  _217
REMARK   83  A    between atoms: _217  and  _218
REMARK   84  A    between atoms: _217  and  _220
REMARK   85  A    between atoms: _220  and  _221
REMARK   86  A    between atoms: _226  and  _228
REMARK   87  A    between atoms: _228  and  _229
REMARK   88  A    between atoms: _228  and  _231
REMARK   89  A    between atoms: _231  and  _232
REMARK   90  A    between atoms: _237  and  _239
REMARK   91  A    between atoms: _239  and  _240
REMARK   92  A    between atoms: _239  and  _242
REMARK   93  A    between atoms: _242  and  _243
REMARK   94  A    between atoms: _243  and  _244
REMARK   95  A    between atoms: _246  and  _248
REMARK   96  A    between atoms: _248  and  _249
REMARK   97  A    between atoms: _248  and  _251
REMARK   98  A    between atoms: _251  and  _252
REMARK   99  A    between atoms: _257  and  _258
REMARK  100  A    between atoms: _260  and  _262
REMARK  101  A    between atoms: _262  and  _263
REMARK  102  A    between atoms: _262  and  _265
REMARK  103  A    between atoms: _265  and  _266
REMARK  104  A    between atoms: _269  and  _271
REMARK  105  A    between atoms: _271  and  _272
REMARK  106  A    between atoms: _271  and  _274
REMARK  107  A    between atoms: _274  and  _275
REMARK  108  A    between atoms: _275  and  _496
REMARK  109  A    between atoms: _276  and  _278
REMARK  110  A    between atoms: _278  and  _279
REMARK  111  A    between atoms: _278  and  _281
REMARK  112  A    between atoms: _281  and  _282
REMARK  113  A    between atoms: _285  and  _287
REMARK  114  A    between atoms: _287  and  _288
REMARK  115  A    between atoms: _287  and  _290
REMARK  116  A    between atoms: _290  and  _291
REMARK  117  A    between atoms: _296  and  _297
REMARK  118  A    between atoms: _299  and  _301
REMARK  119  A    between atoms: _301  and  _302
REMARK  120  A    between atoms: _301  and  _304
REMARK  121  A    between atoms: _304  and  _305
REMARK  122  A    between atoms: _310  and  _311
REMARK  123  A    between atoms: _313  and  _315
REMARK  124  A    between atoms: _315  and  _316
REMARK  125  A    between atoms: _315  and  _318
REMARK  126  A    between atoms: _318  and  _319
REMARK  127  A    between atoms: _319  and  _320
REMARK  128  A    between atoms: _323  and  _325
REMARK  129  A    between atoms: _325  and  _326
REMARK  130  A    between atoms: _325  and  _328
REMARK  131  A    between atoms: _328  and  _329
REMARK  132  A    between atoms: _329  and  _330
REMARK  133  A    between atoms: _330  and  _331
REMARK  134  A    between atoms: _331  and  _332
REMARK  135  A    between atoms: _336  and  _338
REMARK  136  A    between atoms: _338  and  _339
REMARK  137  A    between atoms: _338  and  _341
REMARK  138  A    between atoms: _341  and  _342
REMARK  139  A    between atoms: _347  and  _348
REMARK  140  A    between atoms: _350  and  _352
REMARK  141  A    between atoms: _352  and  _353
REMARK  142  A    between atoms: _352  and  _355
REMARK  143  A    between atoms: _355  and  _356
REMARK  144  A    between atoms: _361  and  _363
REMARK  145  A    between atoms: _363  and  _364
REMARK  146  A    between atoms: _363  and  _366
REMARK  147  A    between atoms: _366  and  _367
REMARK  148  A    between atoms: _370  and  _372
REMARK  149  A    between atoms: _372  and  _373
REMARK  150  A    between atoms: _372  and  _375
REMARK  151  A    between atoms: _375  and  _376
REMARK  152  A    between atoms: _381  and  _383
REMARK  153  A    between atoms: _383  and  _384
REMARK  154  A    between atoms: _383  and  _386
REMARK  155  A    between atoms: _386  and  _387
REMARK  156  A    between atoms: _397  and  _399
REMARK  157  A    between atoms: _399  and  _400
REMARK  158  A    between atoms: _399  and  _402
REMARK  159  A    between atoms: _402  and  _403
REMARK  160  A    between atoms: _409  and  _411
REMARK  161  A    between atoms: _411  and  _412
REMARK  162  A    between atoms: _411  and  _414
REMARK  163  A    between atoms: _414  and  _415
REMARK  164  A    between atoms: _418  and  _420
REMARK  165  A    between atoms: _420  and  _421
REMARK  166  A    between atoms: _420  and  _423
REMARK  167  A    between atoms: _423  and  _424
REMARK  168  A    between atoms: _424  and  _425
REMARK  169  A    between atoms: _425  and  _426
REMARK  170  A    between atoms: _435  and  _437
REMARK  171  A    between atoms: _437  and  _438
REMARK  172  A    between atoms: _437  and  _440
REMARK  173  A    between atoms: _440  and  _441
REMARK  174  A    between atoms: _446  and  _448
REMARK  175  A    between atoms: _448  and  _449
REMARK  176  A    between atoms: _448  and  _451
REMARK  177  A    between atoms: _451  and  _452
REMARK  178  A    between atoms: _452  and  _453
REMARK  179  A    between atoms: _453  and  _454
REMARK  180  A    between atoms: _463  and  _465
REMARK  181  A    between atoms: _465  and  _466
REMARK  182  A    between atoms: _469  and  _471
REMARK  183  A    between atoms: _471  and  _472
REMARK  184  A    between atoms: _474  and  _476
REMARK  185  A    between atoms: _476  and  _477
REMARK  186  A    between atoms: _476  and  _479
REMARK  187  A    between atoms: _479  and  _480
REMARK  188  A    between atoms: _490  and  _492
REMARK  189  A    between atoms: _492  and  _493
REMARK  190  A    between atoms: _492  and  _495
REMARK  191  A    between atoms: _495  and  _496
REMARK  192  A    between atoms: _497  and  _499
REMARK  193  A    between atoms: _499  and  _500
REMARK  194  A    between atoms: _503  and  _505
REMARK  195  A    between atoms: _505  and  _506
REMARK  196  A    between atoms: _505  and  _508
REMARK  197  A    between atoms: _508  and  _509
REMARK  198  A    between atoms: _512  and  _514
REMARK  199  A    between atoms: _514  and  _515
REMARK  200  A    between atoms: _514  and  _517
REMARK  201  A    between atoms: _517  and  _518
REMARK  202  A    between atoms: _523  and  _524
REMARK  203  A    between atoms: _526  and  _528
REMARK  204  A    between atoms: _528  and  _529
REMARK  205  A    between atoms: _528  and  _531
REMARK  206  A    between atoms: _531  and  _532
REMARK  207  A    between atoms: _534  and  _536
REMARK  208  A    between atoms: _536  and  _537
REMARK  209  A    between atoms: _536  and  _539
REMARK  210  A    between atoms: _539  and  _540
REMARK  211  A    between atoms: _546  and  _548
REMARK  212  A    between atoms: _548  and  _549
REMARK  213  A    between atoms: _548  and  _551
REMARK  214  A    between atoms: _551  and  _552
REMARK  215  A    between atoms: _555  and  _557
REMARK  216  A    between atoms: _557  and  _558
REMARK  217  A    between atoms: _557  and  _560
REMARK  218  A    between atoms: _560  and  _561
REMARK  219  A    between atoms: _563  and  _565
REMARK  220  A    between atoms: _565  and  _566
REMARK  221  A    between atoms: _565  and  _568
REMARK  222  A    between atoms: _568  and  _569
REMARK  223  A    between atoms: _574  and  _576
REMARK  224  A    between atoms: _576  and  _577
REMARK  225  A    between atoms: _576  and  _579
REMARK  226  A    between atoms: _579  and  _580
REMARK  227  A    between atoms: _585  and  _587
REMARK  228  A    between atoms: _587  and  _588
REMARK  229  A    between atoms: _587  and  _590
REMARK  230  A    between atoms: _590  and  _591
REMARK  231  A    between atoms: _594  and  _596
REMARK  232  A    between atoms: _596  and  _597
REMARK  233  A    between atoms: _600  and  _602
REMARK  234  A    between atoms: _602  and  _603
REMARK  235  A    between atoms: _602  and  _605
REMARK  236  A    between atoms: _605  and  _606
REMARK  237  A    between atoms: _611  and  _612
REMARK  238  A    between atoms: _614  and  _616
REMARK  239  A    between atoms: _616  and  _617
REMARK  240  A    between atoms: _616  and  _619
REMARK  241  A    between atoms: _619  and  _620
REMARK  242  A    between atoms: _625  and  _626
REMARK  243  A    between atoms: _628  and  _630
REMARK  244  A    between atoms: _630  and  _631
REMARK  245  A    between atoms: _630  and  _633
REMARK  246  A    between atoms: _636  and  _638
REMARK  247  A    between atoms: _638  and  _639
REMARK  248  A    between atoms: _638  and  _641
REMARK  249  A    between atoms: _641  and  _642
REMARK  250  A    between atoms: _647  and  _649
REMARK  251  A    between atoms: _649  and  _650
REMARK  252  A    between atoms: _653  and  _655
REMARK  253  A    between atoms: _655  and  _656
REMARK  254  A    between atoms: _655  and  _658
REMARK  255  A    between atoms: _658  and  _659
REMARK  256  A    between atoms: _659  and  _660
REMARK  257  A    between atoms: _660  and  _661
REMARK  258  A    between atoms: _670  and  _672
REMARK  259  A    between atoms: _672  and  _673
REMARK  260  A    between atoms: _672  and  _675
REMARK  261  A    between atoms: _675  and  _676
REMARK  262  A    between atoms: _679  and  _681
REMARK  263  A    between atoms: _681  and  _682
REMARK  264  A    between atoms: _681  and  _684
REMARK  265  A    between atoms: _684  and  _685
REMARK  266  A    between atoms: _688  and  _690
REMARK  267  A    between atoms: _690  and  _691
REMARK  268  A    between atoms: _690  and  _693
REMARK  269  A    between atoms: _693  and  _694
REMARK                            x       y       z     vdW  Elec       q    Type
REMARK                         _______ _______ _______ _____ _____    ______ ____
ROOT
ATOM      1  CG  TYR A   1       4.972  13.441  25.546  0.00  0.00    -0.020 A 
ATOM      2  CD2 TYR A   1       6.353  13.490  25.293  0.00  0.00    -0.001 A 
ATOM      3  CE2 TYR A   1       6.860  14.445  24.432  0.00  0.00    +0.036 A 
ATOM      4  CZ  TYR A   1       6.023  15.346  23.819  0.00  0.00    +0.134 A 
ATOM      5  CE1 TYR A   1       4.666  15.306  24.029  0.00  0.00    +0.036 A 
ATOM      6  CD1 TYR A   1       4.155  14.355  24.912  0.00  0.00    -0.001 A 
ENDROOT
BRANCH   4   7
ATOM      7  OH  TYR A   1       6.534  16.305  22.970  0.00  0.00    -0.506 OA
ATOM      8  HH  TYR A   1       7.174  16.875  23.465  0.00  0.00    +0.292 HD
ENDBRANCH   4   7
BRANCH   1   9
ATOM      9  CB  TYR A   1       4.429  12.419  26.509  0.00  0.00    +0.051 C 
BRANCH   9  10
ATOM     10  CA  TYR A   1       3.142  11.699  26.095  0.00  0.00    +0.137 C 
BRANCH  10  11
ATOM     11  N   TYR A   1       2.788  10.817  27.204  0.00  0.00    -0.239 NA
ATOM     12  H   TYR A   1       3.542  10.423  27.803  0.00  0.00    +0.142 HD
ENDBRANCH  10  11
BRANCH  10  13
ATOM     13  C   TYR A   1       3.323  10.861  24.843  0.00  0.00    +0.224 C 
ATOM     14  O   TYR A   1       2.625  10.962  23.827  0.00  0.00    -0.287 OA
ENDBRANCH  10  13
ENDBRANCH   9  10
ENDBRANCH   1   9
TORSDOF 5
REMARK  Name = ../refined-set-2016/1b3f/1b3f_pocket.pdb
REMARK  269 active torsions:
REMARK  status: ('A' for Active; 'I' for Inactive)
REMARK    1  A    between atoms: _1  and  _3
REMARK    2  A    between atoms: _3  and  _4
REMARK    3  A    between atoms: _3  and  _6
REMARK    4  A    between atoms: _6  and  _7
REMARK    5  A    between atoms: _12  and  _14
REMARK    6  A    between atoms: _14  and  _15
REMARK    7  A    between atoms: _17  and  _19
REMARK    8  A    between atoms: _19  and  _20
REMARK    9  A    between atoms: _19  and  _22
REMARK   10  A    between atoms: _22  and  _23
REMARK   11  A    between atoms: _25  and  _27
REMARK   12  A    between atoms: _27  and  _28
REMARK   13  A    between atoms: _27  and  _30
REMARK   14  A    between atoms: _30  and  _31
REMARK   15  A    between atoms: _31  and  _32
REMARK   16  A    between atoms: _37  and  _39
REMARK   17  A    between atoms: _39  and  _40
REMARK   18  A    between atoms: _39  and  _42
REMARK   19  A    between atoms: _42  and  _43
REMARK   20  A    between atoms: _46  and  _48
REMARK   21  A    between atoms: _48  and  _49
REMARK   22  A    between atoms: _48  and  _51
REMARK   23  A    between atoms: _52  and  _53
REMARK   24  A    between atoms: _56  and  _58
REMARK   25  A    between atoms: _58  and  _59
REMARK   26  A    between atoms: _61  and  _63
REMARK   27  A    between atoms: _63  and  _64
REMARK   28  A    between atoms: _63  and  _66
REMARK   29  A    between atoms: _70  and  _71
REMARK   30  A    between atoms: _76  and  _78
REMARK   31  A    between atoms: _78  and  _79
REMARK   32  A    between atoms: _78  and  _81
REMARK   33  A    between atoms: _81  and  _82
REMARK   34  A    between atoms: _82  and  _83
REMARK   35  A    between atoms: _86  and  _88
REMARK   36  A    between atoms: _88  and  _89
REMARK   37  A    between atoms: _88  and  _91
REMARK   38  A    between atoms: _91  and  _92
REMARK   39  A    between atoms: _94  and  _96
REMARK   40  A    between atoms: _96  and  _97
REMARK   41  A    between atoms: _96  and  _99
REMARK   42  A    between atoms: _99  and  _100
REMARK   43  A    between atoms: _105  and  _107
REMARK   44  A    between atoms: _107  and  _108
REMARK   45  A    between atoms: _107  and  _110
REMARK   46  A    between atoms: _110  and  _111
REMARK   47  A    between atoms: _111  and  _112
REMARK   48  A    between atoms: _112  and  _113
REMARK   49  A    between atoms: _123  and  _124
REMARK   50  A    between atoms: _129  and  _131
REMARK   51  A    between atoms: _131  and  _132
REMARK   52  A    between atoms: _131  and  _134
REMARK   53  A    between atoms: _134  and  _135
REMARK   54  A    between atoms: _140  and  _141
REMARK   55  A    between atoms: _143  and  _145
REMARK   56  A    between atoms: _145  and  _146
REMARK   57  A    between atoms: _145  and  _148
REMARK   58  A    between atoms: _148  and  _149
REMARK   59  A    between atoms: _154  and  _155
REMARK   60  A    between atoms: _157  and  _159
REMARK   61  A    between atoms: _159  and  _160
REMARK   62  A    between atoms: _159  and  _162
REMARK   63  A    between atoms: _165  and  _167
REMARK   64  A    between atoms: _167  and  _168
REMARK   65  A    between atoms: _167  and  _170
REMARK   66  A    between atoms: _170  and  _171
REMARK   67  A    between atoms: _177  and  _178
REMARK   68  A    between atoms: _183  and  _185
REMARK   69  A    between atoms: _185  and  _186
REMARK   70  A    between atoms: _185  and  _188
REMARK   71  A    between atoms: _188  and  _189
REMARK   72  A    between atoms: _191  and  _193
REMARK   73  A    between atoms: _193  and  _194
REMARK   74  A    between atoms: _193  and  _196
REMARK   75  A    between atoms: _196  and  _197
REMARK   76  A    between atoms: _197  and  _198
REMARK   77  A    between atoms: _201  and  _203
REMARK   78  A    between atoms: _203  and  _204
REMARK   79  A    between atoms: _203  and  _206
REMARK   80  A    between atoms: _206  and  _207
REMARK   81  A    between atoms: _212  and  _213
REMARK   82  A    between atoms: _215  and  _217
REMARK   83  A    between atoms: _217  and  _218
REMARK   84  A    between atoms: _217  and  _220
REMARK   85  A    between atoms: _220  and  _221
REMARK   86  A    between atoms: _226  and  _228
REMARK   87  A    between atoms: _228  and  _229
REMARK   88  A    between atoms: _228  and  _231
REMARK   89  A    between atoms: _231  and  _232
REMARK   90  A    between atoms: _237  and  _239
REMARK   91  A    between atoms: _239  and  _240
REMARK   92  A    between atoms: _239  and  _242
REMARK   93  A    between atoms: _242  and  _243
REMARK   94  A    between atoms: _243  and  _244
REMARK   95  A    between atoms: _246  and  _248
REMARK   96  A    between atoms: _248  and  _249
REMARK   97  A    between atoms: _248  and  _251
REMARK   98  A    between atoms: _251  and  _252
REMARK   99  A    between atoms: _257  and  _258
REMARK  100  A    between atoms: _260  and  _262
REMARK  101  A    between atoms: _262  and  _263
REMARK  102  A    between atoms: _262  and  _265
REMARK  103  A    between atoms: _265  and  _266
REMARK  104  A    between atoms: _269  and  _271
REMARK  105  A    between atoms: _271  and  _272
REMARK  106  A    between atoms: _271  and  _274
REMARK  107  A    between atoms: _274  and  _275
REMARK  108  A    between atoms: _275  and  _496
REMARK  109  A    between atoms: _276  and  _278
REMARK  110  A    between atoms: _278  and  _279
REMARK  111  A    between atoms: _278  and  _281
REMARK  112  A    between atoms: _281  and  _282
REMARK  113  A    between atoms: _285  and  _287
REMARK  114  A    between atoms: _287  and  _288
REMARK  115  A    between atoms: _287  and  _290
REMARK  116  A    between atoms: _290  and  _291
REMARK  117  A    between atoms: _296  and  _297
REMARK  118  A    between atoms: _299  and  _301
REMARK  119  A    between atoms: _301  and  _302
REMARK  120  A    between atoms: _301  and  _304
REMARK  121  A    between atoms: _304  and  _305
REMARK  122  A    between atoms: _310  and  _311
REMARK  123  A    between atoms: _313  and  _315
REMARK  124  A    between atoms: _315  and  _316
REMARK  125  A    between atoms: _315  and  _318
REMARK  126  A    between atoms: _318  and  _319
REMARK  127  A    between atoms: _319  and  _320
REMARK  128  A    between atoms: _323  and  _325
REMARK  129  A    between atoms: _325  and  _326
REMARK  130  A    between atoms: _325  and  _328
REMARK  131  A    between atoms: _328  and  _329
REMARK  132  A    between atoms: _329  and  _330
REMARK  133  A    between atoms: _330  and  _331
REMARK  134  A    between atoms: _331  and  _332
REMARK  135  A    between atoms: _336  and  _338
REMARK  136  A    between atoms: _338  and  _339
REMARK  137  A    between atoms: _338  and  _341
REMARK  138  A    between atoms: _341  and  _342
REMARK  139  A    between atoms: _347  and  _348
REMARK  140  A    between atoms: _350  and  _352
REMARK  141  A    between atoms: _352  and  _353
REMARK  142  A    between atoms: _352  and  _355
REMARK  143  A    between atoms: _355  and  _356
REMARK  144  A    between atoms: _361  and  _363
REMARK  145  A    between atoms: _363  and  _364
REMARK  146  A    between atoms: _363  and  _366
REMARK  147  A    between atoms: _366  and  _367
REMARK  148  A    between atoms: _370  and  _372
REMARK  149  A    between atoms: _372  and  _373
REMARK  150  A    between atoms: _372  and  _375
REMARK  151  A    between atoms: _375  and  _376
REMARK  152  A    between atoms: _381  and  _383
REMARK  153  A    between atoms: _383  and  _384
REMARK  154  A    between atoms: _383  and  _386
REMARK  155  A    between atoms: _386  and  _387
REMARK  156  A    between atoms: _397  and  _399
REMARK  157  A    between atoms: _399  and  _400
REMARK  158  A    between atoms: _399  and  _402
REMARK  159  A    between atoms: _402  and  _403
REMARK  160  A    between atoms: _409  and  _411
REMARK  161  A    between atoms: _411  and  _412
REMARK  162  A    between atoms: _411  and  _414
REMARK  163  A    between atoms: _414  and  _415
REMARK  164  A    between atoms: _418  and  _420
REMARK  165  A    between atoms: _420  and  _421
REMARK  166  A    between atoms: _420  and  _423
REMARK  167  A    between atoms: _423  and  _424
REMARK  168  A    between atoms: _424  and  _425
REMARK  169  A    between atoms: _425  and  _426
REMARK  170  A    between atoms: _435  and  _437
REMARK  171  A    between atoms: _437  and  _438
REMARK  172  A    between atoms: _437  and  _440
REMARK  173  A    between atoms: _440  and  _441
REMARK  174  A    between atoms: _446  and  _448
REMARK  175  A    between atoms: _448  and  _449
REMARK  176  A    between atoms: _448  and  _451
REMARK  177  A    between atoms: _451  and  _452
REMARK  178  A    between atoms: _452  and  _453
REMARK  179  A    between atoms: _453  and  _454
REMARK  180  A    between atoms: _463  and  _465
REMARK  181  A    between atoms: _465  and  _466
REMARK  182  A    between atoms: _469  and  _471
REMARK  183  A    between atoms: _471  and  _472
REMARK  184  A    between atoms: _474  and  _476
REMARK  185  A    between atoms: _476  and  _477
REMARK  186  A    between atoms: _476  and  _479
REMARK  187  A    between atoms: _479  and  _480
REMARK  188  A    between atoms: _490  and  _492
REMARK  189  A    between atoms: _492  and  _493
REMARK  190  A    between atoms: _492  and  _495
REMARK  191  A    between atoms: _495  and  _496
REMARK  192  A    between atoms: _497  and  _499
REMARK  193  A    between atoms: _499  and  _500
REMARK  194  A    between atoms: _503  and  _505
REMARK  195  A    between atoms: _505  and  _506
REMARK  196  A    between atoms: _505  and  _508
REMARK  197  A    between atoms: _508  and  _509
REMARK  198  A    between atoms: _512  and  _514
REMARK  199  A    between atoms: _514  and  _515
REMARK  200  A    between atoms: _514  and  _517
REMARK  201  A    between atoms: _517  and  _518
REMARK  202  A    between atoms: _523  and  _524
REMARK  203  A    between atoms: _526  and  _528
REMARK  204  A    between atoms: _528  and  _529
REMARK  205  A    between atoms: _528  and  _531
REMARK  206  A    between atoms: _531  and  _532
REMARK  207  A    between atoms: _534  and  _536
REMARK  208  A    between atoms: _536  and  _537
REMARK  209  A    between atoms: _536  and  _539
REMARK  210  A    between atoms: _539  and  _540
REMARK  211  A    between atoms: _546  and  _548
REMARK  212  A    between atoms: _548  and  _549
REMARK  213  A    between atoms: _548  and  _551
REMARK  214  A    between atoms: _551  and  _552
REMARK  215  A    between atoms: _555  and  _557
REMARK  216  A    between atoms: _557  and  _558
REMARK  217  A    between atoms: _557  and  _560
REMARK  218  A    between atoms: _560  and  _561
REMARK  219  A    between atoms: _563  and  _565
REMARK  220  A    between atoms: _565  and  _566
REMARK  221  A    between atoms: _565  and  _568
REMARK  222  A    between atoms: _568  and  _569
REMARK  223  A    between atoms: _574  and  _576
REMARK  224  A    between atoms: _576  and  _577
REMARK  225  A    between atoms: _576  and  _579
REMARK  226  A    between atoms: _579  and  _580
REMARK  227  A    between atoms: _585  and  _587
REMARK  228  A    between atoms: _587  and  _588
REMARK  229  A    between atoms: _587  and  _590
REMARK  230  A    between atoms: _590  and  _591
REMARK  231  A    between atoms: _594  and  _596
REMARK  232  A    between atoms: _596  and  _597
REMARK  233  A    between atoms: _600  and  _602
REMARK  234  A    between atoms: _602  and  _603
REMARK  235  A    between atoms: _602  and  _605
REMARK  236  A    between atoms: _605  and  _606
REMARK  237  A    between atoms: _611  and  _612
REMARK  238  A    between atoms: _614  and  _616
REMARK  239  A    between atoms: _616  and  _617
REMARK  240  A    between atoms: _616  and  _619
REMARK  241  A    between atoms: _619  and  _620
REMARK  242  A    between atoms: _625  and  _626
REMARK  243  A    between atoms: _628  and  _630
REMARK  244  A    between atoms: _630  and  _631
REMARK  245  A    between atoms: _630  and  _633
REMARK  246  A    between atoms: _636  and  _638
REMARK  247  A    between atoms: _638  and  _639
REMARK  248  A    between atoms: _638  and  _641
REMARK  249  A    between atoms: _641  and  _642
REMARK  250  A    between atoms: _647  and  _649
REMARK  251  A    between atoms: _649  and  _650
REMARK  252  A    between atoms: _653  and  _655
REMARK  253  A    between atoms: _655  and  _656
REMARK  254  A    between atoms: _655  and  _658
REMARK  255  A    between atoms: _658  and  _659
REMARK  256  A    between atoms: _659  and  _660
REMARK  257  A    between atoms: _660  and  _661
REMARK  258  A    between atoms: _670  and  _672
REMARK  259  A    between atoms: _672  and  _673
REMARK  260  A    between atoms: _672  and  _675
REMARK  261  A    between atoms: _675  and  _676
REMARK  262  A    between atoms: _679  and  _681
REMARK  263  A    between atoms: _681  and  _682
REMARK  264  A    between atoms: _681  and  _684
REMARK  265  A    between atoms: _684  and  _685
REMARK  266  A    between atoms: _688  and  _690
REMARK  267  A    between atoms: _690  and  _691
REMARK  268  A    between atoms: _690  and  _693
REMARK  269  A    between atoms: _693  and  _694
REMARK                            x       y       z     vdW  Elec       q    Type
REMARK                         _______ _______ _______ _____ _____    ______ ____
ROOT
ATOM      1  CB  ASN A   1      -3.073  27.546  17.295  0.00  0.00    +0.110 C 
ENDROOT
BRANCH   1   2
ATOM      2  CG  ASN A   1      -3.424  26.072  17.197  0.00  0.00    +0.221 C 
ATOM      3  OD1 ASN A   1      -3.449  25.370  18.211  0.00  0.00    -0.275 OA
ATOM      4  ND2 ASN A   1      -3.699  25.582  15.973  0.00  0.00    -0.329 N 
ATOM      5 HD21 ASN A   1      -3.944  24.578  15.858  0.00  0.00    +0.145 HD
ATOM      6 HD22 ASN A   1      -3.667  26.208  15.143  0.00  0.00    +0.145 HD
ENDBRANCH   1   2
BRANCH   1   7
ATOM      7  CA  ASN A   1      -4.049  28.402  18.126  0.00  0.00    +0.142 C 
BRANCH   7   8
ATOM      8  N   ASN A   1      -4.069  27.801  19.476  0.00  0.00    -0.239 NA
ATOM      9  H   ASN A   1      -3.840  26.798  19.625  0.00  0.00    +0.142 HD
ENDBRANCH   7   8
BRANCH   7  10
ATOM     10  C   ASN A   1      -5.451  28.422  17.548  0.00  0.00    +0.225 C 
ATOM     11  O   ASN A   1      -6.263  27.511  17.689  0.00  0.00    -0.287 OA
ENDBRANCH   7  10
ENDBRANCH   1   7
TORSDOF 4
REMARK  Name = ../refined-set-2016/1b3f/1b3f_pocket.pdb
REMARK  269 active torsions:
REMARK  status: ('A' for Active; 'I' for Inactive)
REMARK    1  A    between atoms: _1  and  _3
REMARK    2  A    between atoms: _3  and  _4
REMARK    3  A    between atoms: _3  and  _6
REMARK    4  A    between atoms: _6  and  _7
REMARK    5  A    between atoms: _12  and  _14
REMARK    6  A    between atoms: _14  and  _15
REMARK    7  A    between atoms: _17  and  _19
REMARK    8  A    between atoms: _19  and  _20
REMARK    9  A    between atoms: _19  and  _22
REMARK   10  A    between atoms: _22  and  _23
REMARK   11  A    between atoms: _25  and  _27
REMARK   12  A    between atoms: _27  and  _28
REMARK   13  A    between atoms: _27  and  _30
REMARK   14  A    between atoms: _30  and  _31
REMARK   15  A    between atoms: _31  and  _32
REMARK   16  A    between atoms: _37  and  _39
REMARK   17  A    between atoms: _39  and  _40
REMARK   18  A    between atoms: _39  and  _42
REMARK   19  A    between atoms: _42  and  _43
REMARK   20  A    between atoms: _46  and  _48
REMARK   21  A    between atoms: _48  and  _49
REMARK   22  A    between atoms: _48  and  _51
REMARK   23  A    between atoms: _52  and  _53
REMARK   24  A    between atoms: _56  and  _58
REMARK   25  A    between atoms: _58  and  _59
REMARK   26  A    between atoms: _61  and  _63
REMARK   27  A    between atoms: _63  and  _64
REMARK   28  A    between atoms: _63  and  _66
REMARK   29  A    between atoms: _70  and  _71
REMARK   30  A    between atoms: _76  and  _78
REMARK   31  A    between atoms: _78  and  _79
REMARK   32  A    between atoms: _78  and  _81
REMARK   33  A    between atoms: _81  and  _82
REMARK   34  A    between atoms: _82  and  _83
REMARK   35  A    between atoms: _86  and  _88
REMARK   36  A    between atoms: _88  and  _89
REMARK   37  A    between atoms: _88  and  _91
REMARK   38  A    between atoms: _91  and  _92
REMARK   39  A    between atoms: _94  and  _96
REMARK   40  A    between atoms: _96  and  _97
REMARK   41  A    between atoms: _96  and  _99
REMARK   42  A    between atoms: _99  and  _100
REMARK   43  A    between atoms: _105  and  _107
REMARK   44  A    between atoms: _107  and  _108
REMARK   45  A    between atoms: _107  and  _110
REMARK   46  A    between atoms: _110  and  _111
REMARK   47  A    between atoms: _111  and  _112
REMARK   48  A    between atoms: _112  and  _113
REMARK   49  A    between atoms: _123  and  _124
REMARK   50  A    between atoms: _129  and  _131
REMARK   51  A    between atoms: _131  and  _132
REMARK   52  A    between atoms: _131  and  _134
REMARK   53  A    between atoms: _134  and  _135
REMARK   54  A    between atoms: _140  and  _141
REMARK   55  A    between atoms: _143  and  _145
REMARK   56  A    between atoms: _145  and  _146
REMARK   57  A    between atoms: _145  and  _148
REMARK   58  A    between atoms: _148  and  _149
REMARK   59  A    between atoms: _154  and  _155
REMARK   60  A    between atoms: _157  and  _159
REMARK   61  A    between atoms: _159  and  _160
REMARK   62  A    between atoms: _159  and  _162
REMARK   63  A    between atoms: _165  and  _167
REMARK   64  A    between atoms: _167  and  _168
REMARK   65  A    between atoms: _167  and  _170
REMARK   66  A    between atoms: _170  and  _171
REMARK   67  A    between atoms: _177  and  _178
REMARK   68  A    between atoms: _183  and  _185
REMARK   69  A    between atoms: _185  and  _186
REMARK   70  A    between atoms: _185  and  _188
REMARK   71  A    between atoms: _188  and  _189
REMARK   72  A    between atoms: _191  and  _193
REMARK   73  A    between atoms: _193  and  _194
REMARK   74  A    between atoms: _193  and  _196
REMARK   75  A    between atoms: _196  and  _197
REMARK   76  A    between atoms: _197  and  _198
REMARK   77  A    between atoms: _201  and  _203
REMARK   78  A    between atoms: _203  and  _204
REMARK   79  A    between atoms: _203  and  _206
REMARK   80  A    between atoms: _206  and  _207
REMARK   81  A    between atoms: _212  and  _213
REMARK   82  A    between atoms: _215  and  _217
REMARK   83  A    between atoms: _217  and  _218
REMARK   84  A    between atoms: _217  and  _220
REMARK   85  A    between atoms: _220  and  _221
REMARK   86  A    between atoms: _226  and  _228
REMARK   87  A    between atoms: _228  and  _229
REMARK   88  A    between atoms: _228  and  _231
REMARK   89  A    between atoms: _231  and  _232
REMARK   90  A    between atoms: _237  and  _239
REMARK   91  A    between atoms: _239  and  _240
REMARK   92  A    between atoms: _239  and  _242
REMARK   93  A    between atoms: _242  and  _243
REMARK   94  A    between atoms: _243  and  _244
REMARK   95  A    between atoms: _246  and  _248
REMARK   96  A    between atoms: _248  and  _249
REMARK   97  A    between atoms: _248  and  _251
REMARK   98  A    between atoms: _251  and  _252
REMARK   99  A    between atoms: _257  and  _258
REMARK  100  A    between atoms: _260  and  _262
REMARK  101  A    between atoms: _262  and  _263
REMARK  102  A    between atoms: _262  and  _265
REMARK  103  A    between atoms: _265  and  _266
REMARK  104  A    between atoms: _269  and  _271
REMARK  105  A    between atoms: _271  and  _272
REMARK  106  A    between atoms: _271  and  _274
REMARK  107  A    between atoms: _274  and  _275
REMARK  108  A    between atoms: _275  and  _496
REMARK  109  A    between atoms: _276  and  _278
REMARK  110  A    between atoms: _278  and  _279
REMARK  111  A    between atoms: _278  and  _281
REMARK  112  A    between atoms: _281  and  _282
REMARK  113  A    between atoms: _285  and  _287
REMARK  114  A    between atoms: _287  and  _288
REMARK  115  A    between atoms: _287  and  _290
REMARK  116  A    between atoms: _290  and  _291
REMARK  117  A    between atoms: _296  and  _297
REMARK  118  A    between atoms: _299  and  _301
REMARK  119  A    between atoms: _301  and  _302
REMARK  120  A    between atoms: _301  and  _304
REMARK  121  A    between atoms: _304  and  _305
REMARK  122  A    between atoms: _310  and  _311
REMARK  123  A    between atoms: _313  and  _315
REMARK  124  A    between atoms: _315  and  _316
REMARK  125  A    between atoms: _315  and  _318
REMARK  126  A    between atoms: _318  and  _319
REMARK  127  A    between atoms: _319  and  _320
REMARK  128  A    between atoms: _323  and  _325
REMARK  129  A    between atoms: _325  and  _326
REMARK  130  A    between atoms: _325  and  _328
REMARK  131  A    between atoms: _328  and  _329
REMARK  132  A    between atoms: _329  and  _330
REMARK  133  A    between atoms: _330  and  _331
REMARK  134  A    between atoms: _331  and  _332
REMARK  135  A    between atoms: _336  and  _338
REMARK  136  A    between atoms: _338  and  _339
REMARK  137  A    between atoms: _338  and  _341
REMARK  138  A    between atoms: _341  and  _342
REMARK  139  A    between atoms: _347  and  _348
REMARK  140  A    between atoms: _350  and  _352
REMARK  141  A    between atoms: _352  and  _353
REMARK  142  A    between atoms: _352  and  _355
REMARK  143  A    between atoms: _355  and  _356
REMARK  144  A    between atoms: _361  and  _363
REMARK  145  A    between atoms: _363  and  _364
REMARK  146  A    between atoms: _363  and  _366
REMARK  147  A    between atoms: _366  and  _367
REMARK  148  A    between atoms: _370  and  _372
REMARK  149  A    between atoms: _372  and  _373
REMARK  150  A    between atoms: _372  and  _375
REMARK  151  A    between atoms: _375  and  _376
REMARK  152  A    between atoms: _381  and  _383
REMARK  153  A    between atoms: _383  and  _384
REMARK  154  A    between atoms: _383  and  _386
REMARK  155  A    between atoms: _386  and  _387
REMARK  156  A    between atoms: _397  and  _399
REMARK  157  A    between atoms: _399  and  _400
REMARK  158  A    between atoms: _399  and  _402
REMARK  159  A    between atoms: _402  and  _403
REMARK  160  A    between atoms: _409  and  _411
REMARK  161  A    between atoms: _411  and  _412
REMARK  162  A    between atoms: _411  and  _414
REMARK  163  A    between atoms: _414  and  _415
REMARK  164  A    between atoms: _418  and  _420
REMARK  165  A    between atoms: _420  and  _421
REMARK  166  A    between atoms: _420  and  _423
REMARK  167  A    between atoms: _423  and  _424
REMARK  168  A    between atoms: _424  and  _425
REMARK  169  A    between atoms: _425  and  _426
REMARK  170  A    between atoms: _435  and  _437
REMARK  171  A    between atoms: _437  and  _438
REMARK  172  A    between atoms: _437  and  _440
REMARK  173  A    between atoms: _440  and  _441
REMARK  174  A    between atoms: _446  and  _448
REMARK  175  A    between atoms: _448  and  _449
REMARK  176  A    between atoms: _448  and  _451
REMARK  177  A    between atoms: _451  and  _452
REMARK  178  A    between atoms: _452  and  _453
REMARK  179  A    between atoms: _453  and  _454
REMARK  180  A    between atoms: _463  and  _465
REMARK  181  A    between atoms: _465  and  _466
REMARK  182  A    between atoms: _469  and  _471
REMARK  183  A    between atoms: _471  and  _472
REMARK  184  A    between atoms: _474  and  _476
REMARK  185  A    between atoms: _476  and  _477
REMARK  186  A    between atoms: _476  and  _479
REMARK  187  A    between atoms: _479  and  _480
REMARK  188  A    between atoms: _490  and  _492
REMARK  189  A    between atoms: _492  and  _493
REMARK  190  A    between atoms: _492  and  _495
REMARK  191  A    between atoms: _495  and  _496
REMARK  192  A    between atoms: _497  and  _499
REMARK  193  A    between atoms: _499  and  _500
REMARK  194  A    between atoms: _503  and  _505
REMARK  195  A    between atoms: _505  and  _506
REMARK  196  A    between atoms: _505  and  _508
REMARK  197  A    between atoms: _508  and  _509
REMARK  198  A    between atoms: _512  and  _514
REMARK  199  A    between atoms: _514  and  _515
REMARK  200  A    between atoms: _514  and  _517
REMARK  201  A    between atoms: _517  and  _518
REMARK  202  A    between atoms: _523  and  _524
REMARK  203  A    between atoms: _526  and  _528
REMARK  204  A    between atoms: _528  and  _529
REMARK  205  A    between atoms: _528  and  _531
REMARK  206  A    between atoms: _531  and  _532
REMARK  207  A    between atoms: _534  and  _536
REMARK  208  A    between atoms: _536  and  _537
REMARK  209  A    between atoms: _536  and  _539
REMARK  210  A    between atoms: _539  and  _540
REMARK  211  A    between atoms: _546  and  _548
REMARK  212  A    between atoms: _548  and  _549
REMARK  213  A    between atoms: _548  and  _551
REMARK  214  A    between atoms: _551  and  _552
REMARK  215  A    between atoms: _555  and  _557
REMARK  216  A    between atoms: _557  and  _558
REMARK  217  A    between atoms: _557  and  _560
REMARK  218  A    between atoms: _560  and  _561
REMARK  219  A    between atoms: _563  and  _565
REMARK  220  A    between atoms: _565  and  _566
REMARK  221  A    between atoms: _565  and  _568
REMARK  222  A    between atoms: _568  and  _569
REMARK  223  A    between atoms: _574  and  _576
REMARK  224  A    between atoms: _576  and  _577
REMARK  225  A    between atoms: _576  and  _579
REMARK  226  A    between atoms: _579  and  _580
REMARK  227  A    between atoms: _585  and  _587
REMARK  228  A    between atoms: _587  and  _588
REMARK  229  A    between atoms: _587  and  _590
REMARK  230  A    between atoms: _590  and  _591
REMARK  231  A    between atoms: _594  and  _596
REMARK  232  A    between atoms: _596  and  _597
REMARK  233  A    between atoms: _600  and  _602
REMARK  234  A    between atoms: _602  and  _603
REMARK  235  A    between atoms: _602  and  _605
REMARK  236  A    between atoms: _605  and  _606
REMARK  237  A    between atoms: _611  and  _612
REMARK  238  A    between atoms: _614  and  _616
REMARK  239  A    between atoms: _616  and  _617
REMARK  240  A    between atoms: _616  and  _619
REMARK  241  A    between atoms: _619  and  _620
REMARK  242  A    between atoms: _625  and  _626
REMARK  243  A    between atoms: _628  and  _630
REMARK  244  A    between atoms: _630  and  _631
REMARK  245  A    between atoms: _630  and  _633
REMARK  246  A    between atoms: _636  and  _638
REMARK  247  A    between atoms: _638  and  _639
REMARK  248  A    between atoms: _638  and  _641
REMARK  249  A    between atoms: _641  and  _642
REMARK  250  A    between atoms: _647  and  _649
REMARK  251  A    between atoms: _649  and  _650
REMARK  252  A    between atoms: _653  and  _655
REMARK  253  A    between atoms: _655  and  _656
REMARK  254  A    between atoms: _655  and  _658
REMARK  255  A    between atoms: _658  and  _659
REMARK  256  A    between atoms: _659  and  _660
REMARK  257  A    between atoms: _660  and  _661
REMARK  258  A    between atoms: _670  and  _672
REMARK  259  A    between atoms: _672  and  _673
REMARK  260  A    between atoms: _672  and  _675
REMARK  261  A    between atoms: _675  and  _676
REMARK  262  A    between atoms: _679  and  _681
REMARK  263  A    between atoms: _681  and  _682
REMARK  264  A    between atoms: _681  and  _684
REMARK  265  A    between atoms: _684  and  _685
REMARK  266  A    between atoms: _688  and  _690
REMARK  267  A    between atoms: _690  and  _691
REMARK  268  A    between atoms: _690  and  _693
REMARK  269  A    between atoms: _693  and  _694
REMARK                            x       y       z     vdW  Elec       q    Type
REMARK                         _______ _______ _______ _____ _____    ______ ____
ROOT
ATOM      1  C   LEU A   1     -11.118  22.785  18.671  0.00  0.00    +0.238 C 
ATOM      2  O   LEU A   1     -11.636  22.445  19.739  0.00  0.00    -0.274 OA
ATOM      3  N   HIS A   2      -9.994  23.512  18.590  0.00  0.00    -0.298 N 
ATOM      4  H   HIS A   2      -9.625  23.828  17.670  0.00  0.00    +0.150 HD
ENDROOT
BRANCH   1   5
ATOM      5  CA  LEU A   1     -11.813  22.380  17.366  0.00  0.00    +0.145 C 
BRANCH   5   6
ATOM      6  N   LEU A   1     -12.058  23.519  16.504  0.00  0.00    -0.238 NA
ATOM      7  H   LEU A   1     -11.644  23.540  15.550  0.00  0.00    +0.142 HD
ENDBRANCH   5   6
BRANCH   5   8
ATOM      8  CB  LEU A   1     -10.917  21.362  16.629  0.00  0.00    +0.026 C 
BRANCH   8   9
ATOM      9  CG  LEU A   1     -10.385  20.204  17.465  0.00  0.00    +0.002 C 
ATOM     10  CD2 LEU A   1     -11.567  19.365  17.947  0.00  0.00    +0.000 C 
ATOM     11  CD1 LEU A   1      -9.427  19.349  16.649  0.00  0.00    +0.000 C 
ENDBRANCH   8   9
ENDBRANCH   5   8
ENDBRANCH   1   5
BRANCH   3  12
ATOM     12  CA  HIS A   2      -9.300  23.848  19.840  0.00  0.00    +0.143 C 
BRANCH  12  13
ATOM     13  C   HIS A   2     -10.129  24.781  20.734  0.00  0.00    +0.227 C 
ATOM     14  O   HIS A   2     -10.016  24.663  21.959  0.00  0.00    -0.286 OA
ENDBRANCH  12  13
BRANCH  12  15
ATOM     15  CB  HIS A   2      -7.904  24.444  19.597  0.00  0.00    +0.075 C 
BRANCH  15  16
ATOM     16  CG  HIS A   2      -7.092  23.529  18.725  0.00  0.00    +0.082 A 
ATOM     17  ND1 HIS A   2      -7.023  22.181  18.967  0.00  0.00    -0.227 NA
ATOM     18  CE1 HIS A   2      -6.232  21.608  18.029  0.00  0.00    +0.199 A 
ATOM     19  NE2 HIS A   2      -5.804  22.589  17.245  0.00  0.00    -0.221 NA
ATOM     20  CD2 HIS A   2      -6.292  23.807  17.641  0.00  0.00    +0.115 A 
ENDBRANCH  15  16
ENDBRANCH  12  15
ENDBRANCH   3  12
TORSDOF 8
REMARK  Name = ../refined-set-2016/1b3f/1b3f_pocket.pdb
REMARK  269 active torsions:
REMARK  status: ('A' for Active; 'I' for Inactive)
REMARK    1  A    between atoms: _1  and  _3
REMARK    2  A    between atoms: _3  and  _4
REMARK    3  A    between atoms: _3  and  _6
REMARK    4  A    between atoms: _6  and  _7
REMARK    5  A    between atoms: _12  and  _14
REMARK    6  A    between atoms: _14  and  _15
REMARK    7  A    between atoms: _17  and  _19
REMARK    8  A    between atoms: _19  and  _20
REMARK    9  A    between atoms: _19  and  _22
REMARK   10  A    between atoms: _22  and  _23
REMARK   11  A    between atoms: _25  and  _27
REMARK   12  A    between atoms: _27  and  _28
REMARK   13  A    between atoms: _27  and  _30
REMARK   14  A    between atoms: _30  and  _31
REMARK   15  A    between atoms: _31  and  _32
REMARK   16  A    between atoms: _37  and  _39
REMARK   17  A    between atoms: _39  and  _40
REMARK   18  A    between atoms: _39  and  _42
REMARK   19  A    between atoms: _42  and  _43
REMARK   20  A    between atoms: _46  and  _48
REMARK   21  A    between atoms: _48  and  _49
REMARK   22  A    between atoms: _48  and  _51
REMARK   23  A    between atoms: _52  and  _53
REMARK   24  A    between atoms: _56  and  _58
REMARK   25  A    between atoms: _58  and  _59
REMARK   26  A    between atoms: _61  and  _63
REMARK   27  A    between atoms: _63  and  _64
REMARK   28  A    between atoms: _63  and  _66
REMARK   29  A    between atoms: _70  and  _71
REMARK   30  A    between atoms: _76  and  _78
REMARK   31  A    between atoms: _78  and  _79
REMARK   32  A    between atoms: _78  and  _81
REMARK   33  A    between atoms: _81  and  _82
REMARK   34  A    between atoms: _82  and  _83
REMARK   35  A    between atoms: _86  and  _88
REMARK   36  A    between atoms: _88  and  _89
REMARK   37  A    between atoms: _88  and  _91
REMARK   38  A    between atoms: _91  and  _92
REMARK   39  A    between atoms: _94  and  _96
REMARK   40  A    between atoms: _96  and  _97
REMARK   41  A    between atoms: _96  and  _99
REMARK   42  A    between atoms: _99  and  _100
REMARK   43  A    between atoms: _105  and  _107
REMARK   44  A    between atoms: _107  and  _108
REMARK   45  A    between atoms: _107  and  _110
REMARK   46  A    between atoms: _110  and  _111
REMARK   47  A    between atoms: _111  and  _112
REMARK   48  A    between atoms: _112  and  _113
REMARK   49  A    between atoms: _123  and  _124
REMARK   50  A    between atoms: _129  and  _131
REMARK   51  A    between atoms: _131  and  _132
REMARK   52  A    between atoms: _131  and  _134
REMARK   53  A    between atoms: _134  and  _135
REMARK   54  A    between atoms: _140  and  _141
REMARK   55  A    between atoms: _143  and  _145
REMARK   56  A    between atoms: _145  and  _146
REMARK   57  A    between atoms: _145  and  _148
REMARK   58  A    between atoms: _148  and  _149
REMARK   59  A    between atoms: _154  and  _155
REMARK   60  A    between atoms: _157  and  _159
REMARK   61  A    between atoms: _159  and  _160
REMARK   62  A    between atoms: _159  and  _162
REMARK   63  A    between atoms: _165  and  _167
REMARK   64  A    between atoms: _167  and  _168
REMARK   65  A    between atoms: _167  and  _170
REMARK   66  A    between atoms: _170  and  _171
REMARK   67  A    between atoms: _177  and  _178
REMARK   68  A    between atoms: _183  and  _185
REMARK   69  A    between atoms: _185  and  _186
REMARK   70  A    between atoms: _185  and  _188
REMARK   71  A    between atoms: _188  and  _189
REMARK   72  A    between atoms: _191  and  _193
REMARK   73  A    between atoms: _193  and  _194
REMARK   74  A    between atoms: _193  and  _196
REMARK   75  A    between atoms: _196  and  _197
REMARK   76  A    between atoms: _197  and  _198
REMARK   77  A    between atoms: _201  and  _203
REMARK   78  A    between atoms: _203  and  _204
REMARK   79  A    between atoms: _203  and  _206
REMARK   80  A    between atoms: _206  and  _207
REMARK   81  A    between atoms: _212  and  _213
REMARK   82  A    between atoms: _215  and  _217
REMARK   83  A    between atoms: _217  and  _218
REMARK   84  A    between atoms: _217  and  _220
REMARK   85  A    between atoms: _220  and  _221
REMARK   86  A    between atoms: _226  and  _228
REMARK   87  A    between atoms: _228  and  _229
REMARK   88  A    between atoms: _228  and  _231
REMARK   89  A    between atoms: _231  and  _232
REMARK   90  A    between atoms: _237  and  _239
REMARK   91  A    between atoms: _239  and  _240
REMARK   92  A    between atoms: _239  and  _242
REMARK   93  A    between atoms: _242  and  _243
REMARK   94  A    between atoms: _243  and  _244
REMARK   95  A    between atoms: _246  and  _248
REMARK   96  A    between atoms: _248  and  _249
REMARK   97  A    between atoms: _248  and  _251
REMARK   98  A    between atoms: _251  and  _252
REMARK   99  A    between atoms: _257  and  _258
REMARK  100  A    between atoms: _260  and  _262
REMARK  101  A    between atoms: _262  and  _263
REMARK  102  A    between atoms: _262  and  _265
REMARK  103  A    between atoms: _265  and  _266
REMARK  104  A    between atoms: _269  and  _271
REMARK  105  A    between atoms: _271  and  _272
REMARK  106  A    between atoms: _271  and  _274
REMARK  107  A    between atoms: _274  and  _275
REMARK  108  A    between atoms: _275  and  _496
REMARK  109  A    between atoms: _276  and  _278
REMARK  110  A    between atoms: _278  and  _279
REMARK  111  A    between atoms: _278  and  _281
REMARK  112  A    between atoms: _281  and  _282
REMARK  113  A    between atoms: _285  and  _287
REMARK  114  A    between atoms: _287  and  _288
REMARK  115  A    between atoms: _287  and  _290
REMARK  116  A    between atoms: _290  and  _291
REMARK  117  A    between atoms: _296  and  _297
REMARK  118  A    between atoms: _299  and  _301
REMARK  119  A    between atoms: _301  and  _302
REMARK  120  A    between atoms: _301  and  _304
REMARK  121  A    between atoms: _304  and  _305
REMARK  122  A    between atoms: _310  and  _311
REMARK  123  A    between atoms: _313  and  _315
REMARK  124  A    between atoms: _315  and  _316
REMARK  125  A    between atoms: _315  and  _318
REMARK  126  A    between atoms: _318  and  _319
REMARK  127  A    between atoms: _319  and  _320
REMARK  128  A    between atoms: _323  and  _325
REMARK  129  A    between atoms: _325  and  _326
REMARK  130  A    between atoms: _325  and  _328
REMARK  131  A    between atoms: _328  and  _329
REMARK  132  A    between atoms: _329  and  _330
REMARK  133  A    between atoms: _330  and  _331
REMARK  134  A    between atoms: _331  and  _332
REMARK  135  A    between atoms: _336  and  _338
REMARK  136  A    between atoms: _338  and  _339
REMARK  137  A    between atoms: _338  and  _341
REMARK  138  A    between atoms: _341  and  _342
REMARK  139  A    between atoms: _347  and  _348
REMARK  140  A    between atoms: _350  and  _352
REMARK  141  A    between atoms: _352  and  _353
REMARK  142  A    between atoms: _352  and  _355
REMARK  143  A    between atoms: _355  and  _356
REMARK  144  A    between atoms: _361  and  _363
REMARK  145  A    between atoms: _363  and  _364
REMARK  146  A    between atoms: _363  and  _366
REMARK  147  A    between atoms: _366  and  _367
REMARK  148  A    between atoms: _370  and  _372
REMARK  149  A    between atoms: _372  and  _373
REMARK  150  A    between atoms: _372  and  _375
REMARK  151  A    between atoms: _375  and  _376
REMARK  152  A    between atoms: _381  and  _383
REMARK  153  A    between atoms: _383  and  _384
REMARK  154  A    between atoms: _383  and  _386
REMARK  155  A    between atoms: _386  and  _387
REMARK  156  A    between atoms: _397  and  _399
REMARK  157  A    between atoms: _399  and  _400
REMARK  158  A    between atoms: _399  and  _402
REMARK  159  A    between atoms: _402  and  _403
REMARK  160  A    between atoms: _409  and  _411
REMARK  161  A    between atoms: _411  and  _412
REMARK  162  A    between atoms: _411  and  _414
REMARK  163  A    between atoms: _414  and  _415
REMARK  164  A    between atoms: _418  and  _420
REMARK  165  A    between atoms: _420  and  _421
REMARK  166  A    between atoms: _420  and  _423
REMARK  167  A    between atoms: _423  and  _424
REMARK  168  A    between atoms: _424  and  _425
REMARK  169  A    between atoms: _425  and  _426
REMARK  170  A    between atoms: _435  and  _437
REMARK  171  A    between atoms: _437  and  _438
REMARK  172  A    between atoms: _437  and  _440
REMARK  173  A    between atoms: _440  and  _441
REMARK  174  A    between atoms: _446  and  _448
REMARK  175  A    between atoms: _448  and  _449
REMARK  176  A    between atoms: _448  and  _451
REMARK  177  A    between atoms: _451  and  _452
REMARK  178  A    between atoms: _452  and  _453
REMARK  179  A    between atoms: _453  and  _454
REMARK  180  A    between atoms: _463  and  _465
REMARK  181  A    between atoms: _465  and  _466
REMARK  182  A    between atoms: _469  and  _471
REMARK  183  A    between atoms: _471  and  _472
REMARK  184  A    between atoms: _474  and  _476
REMARK  185  A    between atoms: _476  and  _477
REMARK  186  A    between atoms: _476  and  _479
REMARK  187  A    between atoms: _479  and  _480
REMARK  188  A    between atoms: _490  and  _492
REMARK  189  A    between atoms: _492  and  _493
REMARK  190  A    between atoms: _492  and  _495
REMARK  191  A    between atoms: _495  and  _496
REMARK  192  A    between atoms: _497  and  _499
REMARK  193  A    between atoms: _499  and  _500
REMARK  194  A    between atoms: _503  and  _505
REMARK  195  A    between atoms: _505  and  _506
REMARK  196  A    between atoms: _505  and  _508
REMARK  197  A    between atoms: _508  and  _509
REMARK  198  A    between atoms: _512  and  _514
REMARK  199  A    between atoms: _514  and  _515
REMARK  200  A    between atoms: _514  and  _517
REMARK  201  A    between atoms: _517  and  _518
REMARK  202  A    between atoms: _523  and  _524
REMARK  203  A    between atoms: _526  and  _528
REMARK  204  A    between atoms: _528  and  _529
REMARK  205  A    between atoms: _528  and  _531
REMARK  206  A    between atoms: _531  and  _532
REMARK  207  A    between atoms: _534  and  _536
REMARK  208  A    between atoms: _536  and  _537
REMARK  209  A    between atoms: _536  and  _539
REMARK  210  A    between atoms: _539  and  _540
REMARK  211  A    between atoms: _546  and  _548
REMARK  212  A    between atoms: _548  and  _549
REMARK  213  A    between atoms: _548  and  _551
REMARK  214  A    between atoms: _551  and  _552
REMARK  215  A    between atoms: _555  and  _557
REMARK  216  A    between atoms: _557  and  _558
REMARK  217  A    between atoms: _557  and  _560
REMARK  218  A    between atoms: _560  and  _561
REMARK  219  A    between atoms: _563  and  _565
REMARK  220  A    between atoms: _565  and  _566
REMARK  221  A    between atoms: _565  and  _568
REMARK  222  A    between atoms: _568  and  _569
REMARK  223  A    between atoms: _574  and  _576
REMARK  224  A    between atoms: _576  and  _577
REMARK  225  A    between atoms: _576  and  _579
REMARK  226  A    between atoms: _579  and  _580
REMARK  227  A    between atoms: _585  and  _587
REMARK  228  A    between atoms: _587  and  _588
REMARK  229  A    between atoms: _587  and  _590
REMARK  230  A    between atoms: _590  and  _591
REMARK  231  A    between atoms: _594  and  _596
REMARK  232  A    between atoms: _596  and  _597
REMARK  233  A    between atoms: _600  and  _602
REMARK  234  A    between atoms: _602  and  _603
REMARK  235  A    between atoms: _602  and  _605
REMARK  236  A    between atoms: _605  and  _606
REMARK  237  A    between atoms: _611  and  _612
REMARK  238  A    between atoms: _614  and  _616
REMARK  239  A    between atoms: _616  and  _617
REMARK  240  A    between atoms: _616  and  _619
REMARK  241  A    between atoms: _619  and  _620
REMARK  242  A    between atoms: _625  and  _626
REMARK  243  A    between atoms: _628  and  _630
REMARK  244  A    between atoms: _630  and  _631
REMARK  245  A    between atoms: _630  and  _633
REMARK  246  A    between atoms: _636  and  _638
REMARK  247  A    between atoms: _638  and  _639
REMARK  248  A    between atoms: _638  and  _641
REMARK  249  A    between atoms: _641  and  _642
REMARK  250  A    between atoms: _647  and  _649
REMARK  251  A    between atoms: _649  and  _650
REMARK  252  A    between atoms: _653  and  _655
REMARK  253  A    between atoms: _655  and  _656
REMARK  254  A    between atoms: _655  and  _658
REMARK  255  A    between atoms: _658  and  _659
REMARK  256  A    between atoms: _659  and  _660
REMARK  257  A    between atoms: _660  and  _661
REMARK  258  A    between atoms: _670  and  _672
REMARK  259  A    between atoms: _672  and  _673
REMARK  260  A    between atoms: _672  and  _675
REMARK  261  A    between atoms: _675  and  _676
REMARK  262  A    between atoms: _679  and  _681
REMARK  263  A    between atoms: _681  and  _682
REMARK  264  A    between atoms: _681  and  _684
REMARK  265  A    between atoms: _684  and  _685
REMARK  266  A    between atoms: _688  and  _690
REMARK  267  A    between atoms: _690  and  _691
REMARK  268  A    between atoms: _690  and  _693
REMARK  269  A    between atoms: _693  and  _694
REMARK                            x       y       z     vdW  Elec       q    Type
REMARK                         _______ _______ _______ _____ _____    ______ ____
ROOT
ATOM      1  CG  TRP A   1       0.468  27.224  13.052  0.00  0.00    -0.002 A 
ATOM      2  CD2 TRP A   1       0.429  26.062  13.866  0.00  0.00    +0.013 A 
ATOM      3  CE3 TRP A   1      -0.311  25.700  15.003  0.00  0.00    +0.001 A 
ATOM      4  CZ3 TRP A   1      -0.072  24.445  15.576  0.00  0.00    +0.000 A 
ATOM      5  CH2 TRP A   1       0.912  23.572  15.034  0.00  0.00    +0.001 A 
ATOM      6  CZ2 TRP A   1       1.644  23.909  13.923  0.00  0.00    +0.017 A 
ATOM      7  CE2 TRP A   1       1.384  25.151  13.354  0.00  0.00    +0.056 A 
ATOM      8  NE1 TRP A   1       1.991  25.759  12.274  0.00  0.00    -0.352 N 
ATOM      9  HE1 TRP A   1       2.766  25.361  11.706  0.00  0.00    +0.166 HD
ATOM     10  CD1 TRP A   1       1.397  26.978  12.080  0.00  0.00    +0.068 A 
ENDROOT
BRANCH   1  11
ATOM     11  CB  TRP A   1      -0.397  28.464  13.076  0.00  0.00    +0.053 C 
BRANCH  11  12
ATOM     12  CA  TRP A   1      -0.305  29.346  14.343  0.00  0.00    +0.137 C 
BRANCH  12  13
ATOM     13  N   TRP A   1      -1.363  30.354  14.233  0.00  0.00    -0.239 NA
ATOM     14  H   TRP A   1      -2.119  30.223  13.531  0.00  0.00    +0.142 HD
ENDBRANCH  12  13
BRANCH  12  15
ATOM     15  C   TRP A   1       1.132  29.779  14.498  0.00  0.00    +0.224 C 
ATOM     16  O   TRP A   1       1.817  29.374  15.432  0.00  0.00    -0.287 OA
ENDBRANCH  12  15
ENDBRANCH  11  12
ENDBRANCH   1  11
TORSDOF 4
REMARK  Name = ../refined-set-2016/1b3f/1b3f_pocket.pdb
REMARK  269 active torsions:
REMARK  status: ('A' for Active; 'I' for Inactive)
REMARK    1  A    between atoms: _1  and  _3
REMARK    2  A    between atoms: _3  and  _4
REMARK    3  A    between atoms: _3  and  _6
REMARK    4  A    between atoms: _6  and  _7
REMARK    5  A    between atoms: _12  and  _14
REMARK    6  A    between atoms: _14  and  _15
REMARK    7  A    between atoms: _17  and  _19
REMARK    8  A    between atoms: _19  and  _20
REMARK    9  A    between atoms: _19  and  _22
REMARK   10  A    between atoms: _22  and  _23
REMARK   11  A    between atoms: _25  and  _27
REMARK   12  A    between atoms: _27  and  _28
REMARK   13  A    between atoms: _27  and  _30
REMARK   14  A    between atoms: _30  and  _31
REMARK   15  A    between atoms: _31  and  _32
REMARK   16  A    between atoms: _37  and  _39
REMARK   17  A    between atoms: _39  and  _40
REMARK   18  A    between atoms: _39  and  _42
REMARK   19  A    between atoms: _42  and  _43
REMARK   20  A    between atoms: _46  and  _48
REMARK   21  A    between atoms: _48  and  _49
REMARK   22  A    between atoms: _48  and  _51
REMARK   23  A    between atoms: _52  and  _53
REMARK   24  A    between atoms: _56  and  _58
REMARK   25  A    between atoms: _58  and  _59
REMARK   26  A    between atoms: _61  and  _63
REMARK   27  A    between atoms: _63  and  _64
REMARK   28  A    between atoms: _63  and  _66
REMARK   29  A    between atoms: _70  and  _71
REMARK   30  A    between atoms: _76  and  _78
REMARK   31  A    between atoms: _78  and  _79
REMARK   32  A    between atoms: _78  and  _81
REMARK   33  A    between atoms: _81  and  _82
REMARK   34  A    between atoms: _82  and  _83
REMARK   35  A    between atoms: _86  and  _88
REMARK   36  A    between atoms: _88  and  _89
REMARK   37  A    between atoms: _88  and  _91
REMARK   38  A    between atoms: _91  and  _92
REMARK   39  A    between atoms: _94  and  _96
REMARK   40  A    between atoms: _96  and  _97
REMARK   41  A    between atoms: _96  and  _99
REMARK   42  A    between atoms: _99  and  _100
REMARK   43  A    between atoms: _105  and  _107
REMARK   44  A    between atoms: _107  and  _108
REMARK   45  A    between atoms: _107  and  _110
REMARK   46  A    between atoms: _110  and  _111
REMARK   47  A    between atoms: _111  and  _112
REMARK   48  A    between atoms: _112  and  _113
REMARK   49  A    between atoms: _123  and  _124
REMARK   50  A    between atoms: _129  and  _131
REMARK   51  A    between atoms: _131  and  _132
REMARK   52  A    between atoms: _131  and  _134
REMARK   53  A    between atoms: _134  and  _135
REMARK   54  A    between atoms: _140  and  _141
REMARK   55  A    between atoms: _143  and  _145
REMARK   56  A    between atoms: _145  and  _146
REMARK   57  A    between atoms: _145  and  _148
REMARK   58  A    between atoms: _148  and  _149
REMARK   59  A    between atoms: _154  and  _155
REMARK   60  A    between atoms: _157  and  _159
REMARK   61  A    between atoms: _159  and  _160
REMARK   62  A    between atoms: _159  and  _162
REMARK   63  A    between atoms: _165  and  _167
REMARK   64  A    between atoms: _167  and  _168
REMARK   65  A    between atoms: _167  and  _170
REMARK   66  A    between atoms: _170  and  _171
REMARK   67  A    between atoms: _177  and  _178
REMARK   68  A    between atoms: _183  and  _185
REMARK   69  A    between atoms: _185  and  _186
REMARK   70  A    between atoms: _185  and  _188
REMARK   71  A    between atoms: _188  and  _189
REMARK   72  A    between atoms: _191  and  _193
REMARK   73  A    between atoms: _193  and  _194
REMARK   74  A    between atoms: _193  and  _196
REMARK   75  A    between atoms: _196  and  _197
REMARK   76  A    between atoms: _197  and  _198
REMARK   77  A    between atoms: _201  and  _203
REMARK   78  A    between atoms: _203  and  _204
REMARK   79  A    between atoms: _203  and  _206
REMARK   80  A    between atoms: _206  and  _207
REMARK   81  A    between atoms: _212  and  _213
REMARK   82  A    between atoms: _215  and  _217
REMARK   83  A    between atoms: _217  and  _218
REMARK   84  A    between atoms: _217  and  _220
REMARK   85  A    between atoms: _220  and  _221
REMARK   86  A    between atoms: _226  and  _228
REMARK   87  A    between atoms: _228  and  _229
REMARK   88  A    between atoms: _228  and  _231
REMARK   89  A    between atoms: _231  and  _232
REMARK   90  A    between atoms: _237  and  _239
REMARK   91  A    between atoms: _239  and  _240
REMARK   92  A    between atoms: _239  and  _242
REMARK   93  A    between atoms: _242  and  _243
REMARK   94  A    between atoms: _243  and  _244
REMARK   95  A    between atoms: _246  and  _248
REMARK   96  A    between atoms: _248  and  _249
REMARK   97  A    between atoms: _248  and  _251
REMARK   98  A    between atoms: _251  and  _252
REMARK   99  A    between atoms: _257  and  _258
REMARK  100  A    between atoms: _260  and  _262
REMARK  101  A    between atoms: _262  and  _263
REMARK  102  A    between atoms: _262  and  _265
REMARK  103  A    between atoms: _265  and  _266
REMARK  104  A    between atoms: _269  and  _271
REMARK  105  A    between atoms: _271  and  _272
REMARK  106  A    between atoms: _271  and  _274
REMARK  107  A    between atoms: _274  and  _275
REMARK  108  A    between atoms: _275  and  _496
REMARK  109  A    between atoms: _276  and  _278
REMARK  110  A    between atoms: _278  and  _279
REMARK  111  A    between atoms: _278  and  _281
REMARK  112  A    between atoms: _281  and  _282
REMARK  113  A    between atoms: _285  and  _287
REMARK  114  A    between atoms: _287  and  _288
REMARK  115  A    between atoms: _287  and  _290
REMARK  116  A    between atoms: _290  and  _291
REMARK  117  A    between atoms: _296  and  _297
REMARK  118  A    between atoms: _299  and  _301
REMARK  119  A    between atoms: _301  and  _302
REMARK  120  A    between atoms: _301  and  _304
REMARK  121  A    between atoms: _304  and  _305
REMARK  122  A    between atoms: _310  and  _311
REMARK  123  A    between atoms: _313  and  _315
REMARK  124  A    between atoms: _315  and  _316
REMARK  125  A    between atoms: _315  and  _318
REMARK  126  A    between atoms: _318  and  _319
REMARK  127  A    between atoms: _319  and  _320
REMARK  128  A    between atoms: _323  and  _325
REMARK  129  A    between atoms: _325  and  _326
REMARK  130  A    between atoms: _325  and  _328
REMARK  131  A    between atoms: _328  and  _329
REMARK  132  A    between atoms: _329  and  _330
REMARK  133  A    between atoms: _330  and  _331
REMARK  134  A    between atoms: _331  and  _332
REMARK  135  A    between atoms: _336  and  _338
REMARK  136  A    between atoms: _338  and  _339
REMARK  137  A    between atoms: _338  and  _341
REMARK  138  A    between atoms: _341  and  _342
REMARK  139  A    between atoms: _347  and  _348
REMARK  140  A    between atoms: _350  and  _352
REMARK  141  A    between atoms: _352  and  _353
REMARK  142  A    between atoms: _352  and  _355
REMARK  143  A    between atoms: _355  and  _356
REMARK  144  A    between atoms: _361  and  _363
REMARK  145  A    between atoms: _363  and  _364
REMARK  146  A    between atoms: _363  and  _366
REMARK  147  A    between atoms: _366  and  _367
REMARK  148  A    between atoms: _370  and  _372
REMARK  149  A    between atoms: _372  and  _373
REMARK  150  A    between atoms: _372  and  _375
REMARK  151  A    between atoms: _375  and  _376
REMARK  152  A    between atoms: _381  and  _383
REMARK  153  A    between atoms: _383  and  _384
REMARK  154  A    between atoms: _383  and  _386
REMARK  155  A    between atoms: _386  and  _387
REMARK  156  A    between atoms: _397  and  _399
REMARK  157  A    between atoms: _399  and  _400
REMARK  158  A    between atoms: _399  and  _402
REMARK  159  A    between atoms: _402  and  _403
REMARK  160  A    between atoms: _409  and  _411
REMARK  161  A    between atoms: _411  and  _412
REMARK  162  A    between atoms: _411  and  _414
REMARK  163  A    between atoms: _414  and  _415
REMARK  164  A    between atoms: _418  and  _420
REMARK  165  A    between atoms: _420  and  _421
REMARK  166  A    between atoms: _420  and  _423
REMARK  167  A    between atoms: _423  and  _424
REMARK  168  A    between atoms: _424  and  _425
REMARK  169  A    between atoms: _425  and  _426
REMARK  170  A    between atoms: _435  and  _437
REMARK  171  A    between atoms: _437  and  _438
REMARK  172  A    between atoms: _437  and  _440
REMARK  173  A    between atoms: _440  and  _441
REMARK  174  A    between atoms: _446  and  _448
REMARK  175  A    between atoms: _448  and  _449
REMARK  176  A    between atoms: _448  and  _451
REMARK  177  A    between atoms: _451  and  _452
REMARK  178  A    between atoms: _452  and  _453
REMARK  179  A    between atoms: _453  and  _454
REMARK  180  A    between atoms: _463  and  _465
REMARK  181  A    between atoms: _465  and  _466
REMARK  182  A    between atoms: _469  and  _471
REMARK  183  A    between atoms: _471  and  _472
REMARK  184  A    between atoms: _474  and  _476
REMARK  185  A    between atoms: _476  and  _477
REMARK  186  A    between atoms: _476  and  _479
REMARK  187  A    between atoms: _479  and  _480
REMARK  188  A    between atoms: _490  and  _492
REMARK  189  A    between atoms: _492  and  _493
REMARK  190  A    between atoms: _492  and  _495
REMARK  191  A    between atoms: _495  and  _496
REMARK  192  A    between atoms: _497  and  _499
REMARK  193  A    between atoms: _499  and  _500
REMARK  194  A    between atoms: _503  and  _505
REMARK  195  A    between atoms: _505  and  _506
REMARK  196  A    between atoms: _505  and  _508
REMARK  197  A    between atoms: _508  and  _509
REMARK  198  A    between atoms: _512  and  _514
REMARK  199  A    between atoms: _514  and  _515
REMARK  200  A    between atoms: _514  and  _517
REMARK  201  A    between atoms: _517  and  _518
REMARK  202  A    between atoms: _523  and  _524
REMARK  203  A    between atoms: _526  and  _528
REMARK  204  A    between atoms: _528  and  _529
REMARK  205  A    between atoms: _528  and  _531
REMARK  206  A    between atoms: _531  and  _532
REMARK  207  A    between atoms: _534  and  _536
REMARK  208  A    between atoms: _536  and  _537
REMARK  209  A    between atoms: _536  and  _539
REMARK  210  A    between atoms: _539  and  _540
REMARK  211  A    between atoms: _546  and  _548
REMARK  212  A    between atoms: _548  and  _549
REMARK  213  A    between atoms: _548  and  _551
REMARK  214  A    between atoms: _551  and  _552
REMARK  215  A    between atoms: _555  and  _557
REMARK  216  A    between atoms: _557  and  _558
REMARK  217  A    between atoms: _557  and  _560
REMARK  218  A    between atoms: _560  and  _561
REMARK  219  A    between atoms: _563  and  _565
REMARK  220  A    between atoms: _565  and  _566
REMARK  221  A    between atoms: _565  and  _568
REMARK  222  A    between atoms: _568  and  _569
REMARK  223  A    between atoms: _574  and  _576
REMARK  224  A    between atoms: _576  and  _577
REMARK  225  A    between atoms: _576  and  _579
REMARK  226  A    between atoms: _579  and  _580
REMARK  227  A    between atoms: _585  and  _587
REMARK  228  A    between atoms: _587  and  _588
REMARK  229  A    between atoms: _587  and  _590
REMARK  230  A    between atoms: _590  and  _591
REMARK  231  A    between atoms: _594  and  _596
REMARK  232  A    between atoms: _596  and  _597
REMARK  233  A    between atoms: _600  and  _602
REMARK  234  A    between atoms: _602  and  _603
REMARK  235  A    between atoms: _602  and  _605
REMARK  236  A    between atoms: _605  and  _606
REMARK  237  A    between atoms: _611  and  _612
REMARK  238  A    between atoms: _614  and  _616
REMARK  239  A    between atoms: _616  and  _617
REMARK  240  A    between atoms: _616  and  _619
REMARK  241  A    between atoms: _619  and  _620
REMARK  242  A    between atoms: _625  and  _626
REMARK  243  A    between atoms: _628  and  _630
REMARK  244  A    between atoms: _630  and  _631
REMARK  245  A    between atoms: _630  and  _633
REMARK  246  A    between atoms: _636  and  _638
REMARK  247  A    between atoms: _638  and  _639
REMARK  248  A    between atoms: _638  and  _641
REMARK  249  A    between atoms: _641  and  _642
REMARK  250  A    between atoms: _647  and  _649
REMARK  251  A    between atoms: _649  and  _650
REMARK  252  A    between atoms: _653  and  _655
REMARK  253  A    between atoms: _655  and  _656
REMARK  254  A    between atoms: _655  and  _658
REMARK  255  A    between atoms: _658  and  _659
REMARK  256  A    between atoms: _659  and  _660
REMARK  257  A    between atoms: _660  and  _661
REMARK  258  A    between atoms: _670  and  _672
REMARK  259  A    between atoms: _672  and  _673
REMARK  260  A    between atoms: _672  and  _675
REMARK  261  A    between atoms: _675  and  _676
REMARK  262  A    between atoms: _679  and  _681
REMARK  263  A    between atoms: _681  and  _682
REMARK  264  A    between atoms: _681  and  _684
REMARK  265  A    between atoms: _684  and  _685
REMARK  266  A    between atoms: _688  and  _690
REMARK  267  A    between atoms: _690  and  _691
REMARK  268  A    between atoms: _690  and  _693
REMARK  269  A    between atoms: _693  and  _694
REMARK                            x       y       z     vdW  Elec       q    Type
REMARK                         _______ _______ _______ _____ _____    ______ ____
ROOT
ATOM      1  C   PHE A   1       2.646  29.796  19.162  0.00  0.00    +0.239 C 
ATOM      2  O   PHE A   1       2.993  29.596  20.349  0.00  0.00    -0.274 OA
ATOM      3  N   LEU A   2       3.302  29.248  18.107  0.00  0.00    -0.298 N 
ATOM      4  H   LEU A   2       2.951  29.377  17.136  0.00  0.00    +0.150 HD
ENDROOT
BRANCH   1   5
ATOM      5  CA  PHE A   1       1.424  30.622  18.880  0.00  0.00    +0.149 C 
BRANCH   5   6
ATOM      6  N   PHE A   1       1.632  31.591  17.792  0.00  0.00    -0.238 NA
ATOM      7  H   PHE A   1       0.998  31.565  16.968  0.00  0.00    +0.142 HD
ENDBRANCH   5   6
BRANCH   5   8
ATOM      8  CB  PHE A   1       0.289  29.725  18.377  0.00  0.00    +0.053 C 
BRANCH   8   9
ATOM      9  CG  PHE A   1      -0.003  28.460  19.140  0.00  0.00    -0.020 A 
ATOM     10  CD2 PHE A   1      -0.567  28.529  20.402  0.00  0.00    -0.004 A 
ATOM     11  CE2 PHE A   1      -0.874  27.349  21.077  0.00  0.00    -0.000 A 
ATOM     12  CZ  PHE A   1      -0.646  26.123  20.493  0.00  0.00    -0.000 A 
ATOM     13  CE1 PHE A   1      -0.055  26.041  19.237  0.00  0.00    -0.000 A 
ATOM     14  CD1 PHE A   1       0.248  27.215  18.561  0.00  0.00    -0.004 A 
ENDBRANCH   8   9
ENDBRANCH   5   8
ENDBRANCH   1   5
BRANCH   3  15
ATOM     15  CA  LEU A   2       4.516  28.471  18.369  0.00  0.00    +0.137 C 
BRANCH  15  16
ATOM     16  C   LEU A   2       5.620  29.362  18.934  0.00  0.00    +0.227 C 
ATOM     17  O   LEU A   2       6.363  28.949  19.859  0.00  0.00    -0.286 OA
ENDBRANCH  15  16
BRANCH  15  18
ATOM     18  CB  LEU A   2       5.020  27.740  17.124  0.00  0.00    +0.028 C 
BRANCH  18  19
ATOM     19  CG  LEU A   2       3.990  26.753  16.510  0.00  0.00    +0.002 C 
ATOM     20  CD2 LEU A   2       3.697  25.644  17.536  0.00  0.00    +0.000 C 
ATOM     21  CD1 LEU A   2       4.490  26.197  15.201  0.00  0.00    +0.000 C 
ENDBRANCH  18  19
ENDBRANCH  15  18
ENDBRANCH   3  15
TORSDOF 8
REMARK  Name = ../refined-set-2016/1b3f/1b3f_pocket.pdb
REMARK  269 active torsions:
REMARK  status: ('A' for Active; 'I' for Inactive)
REMARK    1  A    between atoms: _1  and  _3
REMARK    2  A    between atoms: _3  and  _4
REMARK    3  A    between atoms: _3  and  _6
REMARK    4  A    between atoms: _6  and  _7
REMARK    5  A    between atoms: _12  and  _14
REMARK    6  A    between atoms: _14  and  _15
REMARK    7  A    between atoms: _17  and  _19
REMARK    8  A    between atoms: _19  and  _20
REMARK    9  A    between atoms: _19  and  _22
REMARK   10  A    between atoms: _22  and  _23
REMARK   11  A    between atoms: _25  and  _27
REMARK   12  A    between atoms: _27  and  _28
REMARK   13  A    between atoms: _27  and  _30
REMARK   14  A    between atoms: _30  and  _31
REMARK   15  A    between atoms: _31  and  _32
REMARK   16  A    between atoms: _37  and  _39
REMARK   17  A    between atoms: _39  and  _40
REMARK   18  A    between atoms: _39  and  _42
REMARK   19  A    between atoms: _42  and  _43
REMARK   20  A    between atoms: _46  and  _48
REMARK   21  A    between atoms: _48  and  _49
REMARK   22  A    between atoms: _48  and  _51
REMARK   23  A    between atoms: _52  and  _53
REMARK   24  A    between atoms: _56  and  _58
REMARK   25  A    between atoms: _58  and  _59
REMARK   26  A    between atoms: _61  and  _63
REMARK   27  A    between atoms: _63  and  _64
REMARK   28  A    between atoms: _63  and  _66
REMARK   29  A    between atoms: _70  and  _71
REMARK   30  A    between atoms: _76  and  _78
REMARK   31  A    between atoms: _78  and  _79
REMARK   32  A    between atoms: _78  and  _81
REMARK   33  A    between atoms: _81  and  _82
REMARK   34  A    between atoms: _82  and  _83
REMARK   35  A    between atoms: _86  and  _88
REMARK   36  A    between atoms: _88  and  _89
REMARK   37  A    between atoms: _88  and  _91
REMARK   38  A    between atoms: _91  and  _92
REMARK   39  A    between atoms: _94  and  _96
REMARK   40  A    between atoms: _96  and  _97
REMARK   41  A    between atoms: _96  and  _99
REMARK   42  A    between atoms: _99  and  _100
REMARK   43  A    between atoms: _105  and  _107
REMARK   44  A    between atoms: _107  and  _108
REMARK   45  A    between atoms: _107  and  _110
REMARK   46  A    between atoms: _110  and  _111
REMARK   47  A    between atoms: _111  and  _112
REMARK   48  A    between atoms: _112  and  _113
REMARK   49  A    between atoms: _123  and  _124
REMARK   50  A    between atoms: _129  and  _131
REMARK   51  A    between atoms: _131  and  _132
REMARK   52  A    between atoms: _131  and  _134
REMARK   53  A    between atoms: _134  and  _135
REMARK   54  A    between atoms: _140  and  _141
REMARK   55  A    between atoms: _143  and  _145
REMARK   56  A    between atoms: _145  and  _146
REMARK   57  A    between atoms: _145  and  _148
REMARK   58  A    between atoms: _148  and  _149
REMARK   59  A    between atoms: _154  and  _155
REMARK   60  A    between atoms: _157  and  _159
REMARK   61  A    between atoms: _159  and  _160
REMARK   62  A    between atoms: _159  and  _162
REMARK   63  A    between atoms: _165  and  _167
REMARK   64  A    between atoms: _167  and  _168
REMARK   65  A    between atoms: _167  and  _170
REMARK   66  A    between atoms: _170  and  _171
REMARK   67  A    between atoms: _177  and  _178
REMARK   68  A    between atoms: _183  and  _185
REMARK   69  A    between atoms: _185  and  _186
REMARK   70  A    between atoms: _185  and  _188
REMARK   71  A    between atoms: _188  and  _189
REMARK   72  A    between atoms: _191  and  _193
REMARK   73  A    between atoms: _193  and  _194
REMARK   74  A    between atoms: _193  and  _196
REMARK   75  A    between atoms: _196  and  _197
REMARK   76  A    between atoms: _197  and  _198
REMARK   77  A    between atoms: _201  and  _203
REMARK   78  A    between atoms: _203  and  _204
REMARK   79  A    between atoms: _203  and  _206
REMARK   80  A    between atoms: _206  and  _207
REMARK   81  A    between atoms: _212  and  _213
REMARK   82  A    between atoms: _215  and  _217
REMARK   83  A    between atoms: _217  and  _218
REMARK   84  A    between atoms: _217  and  _220
REMARK   85  A    between atoms: _220  and  _221
REMARK   86  A    between atoms: _226  and  _228
REMARK   87  A    between atoms: _228  and  _229
REMARK   88  A    between atoms: _228  and  _231
REMARK   89  A    between atoms: _231  and  _232
REMARK   90  A    between atoms: _237  and  _239
REMARK   91  A    between atoms: _239  and  _240
REMARK   92  A    between atoms: _239  and  _242
REMARK   93  A    between atoms: _242  and  _243
REMARK   94  A    between atoms: _243  and  _244
REMARK   95  A    between atoms: _246  and  _248
REMARK   96  A    between atoms: _248  and  _249
REMARK   97  A    between atoms: _248  and  _251
REMARK   98  A    between atoms: _251  and  _252
REMARK   99  A    between atoms: _257  and  _258
REMARK  100  A    between atoms: _260  and  _262
REMARK  101  A    between atoms: _262  and  _263
REMARK  102  A    between atoms: _262  and  _265
REMARK  103  A    between atoms: _265  and  _266
REMARK  104  A    between atoms: _269  and  _271
REMARK  105  A    between atoms: _271  and  _272
REMARK  106  A    between atoms: _271  and  _274
REMARK  107  A    between atoms: _274  and  _275
REMARK  108  A    between atoms: _275  and  _496
REMARK  109  A    between atoms: _276  and  _278
REMARK  110  A    between atoms: _278  and  _279
REMARK  111  A    between atoms: _278  and  _281
REMARK  112  A    between atoms: _281  and  _282
REMARK  113  A    between atoms: _285  and  _287
REMARK  114  A    between atoms: _287  and  _288
REMARK  115  A    between atoms: _287  and  _290
REMARK  116  A    between atoms: _290  and  _291
REMARK  117  A    between atoms: _296  and  _297
REMARK  118  A    between atoms: _299  and  _301
REMARK  119  A    between atoms: _301  and  _302
REMARK  120  A    between atoms: _301  and  _304
REMARK  121  A    between atoms: _304  and  _305
REMARK  122  A    between atoms: _310  and  _311
REMARK  123  A    between atoms: _313  and  _315
REMARK  124  A    between atoms: _315  and  _316
REMARK  125  A    between atoms: _315  and  _318
REMARK  126  A    between atoms: _318  and  _319
REMARK  127  A    between atoms: _319  and  _320
REMARK  128  A    between atoms: _323  and  _325
REMARK  129  A    between atoms: _325  and  _326
REMARK  130  A    between atoms: _325  and  _328
REMARK  131  A    between atoms: _328  and  _329
REMARK  132  A    between atoms: _329  and  _330
REMARK  133  A    between atoms: _330  and  _331
REMARK  134  A    between atoms: _331  and  _332
REMARK  135  A    between atoms: _336  and  _338
REMARK  136  A    between atoms: _338  and  _339
REMARK  137  A    between atoms: _338  and  _341
REMARK  138  A    between atoms: _341  and  _342
REMARK  139  A    between atoms: _347  and  _348
REMARK  140  A    between atoms: _350  and  _352
REMARK  141  A    between atoms: _352  and  _353
REMARK  142  A    between atoms: _352  and  _355
REMARK  143  A    between atoms: _355  and  _356
REMARK  144  A    between atoms: _361  and  _363
REMARK  145  A    between atoms: _363  and  _364
REMARK  146  A    between atoms: _363  and  _366
REMARK  147  A    between atoms: _366  and  _367
REMARK  148  A    between atoms: _370  and  _372
REMARK  149  A    between atoms: _372  and  _373
REMARK  150  A    between atoms: _372  and  _375
REMARK  151  A    between atoms: _375  and  _376
REMARK  152  A    between atoms: _381  and  _383
REMARK  153  A    between atoms: _383  and  _384
REMARK  154  A    between atoms: _383  and  _386
REMARK  155  A    between atoms: _386  and  _387
REMARK  156  A    between atoms: _397  and  _399
REMARK  157  A    between atoms: _399  and  _400
REMARK  158  A    between atoms: _399  and  _402
REMARK  159  A    between atoms: _402  and  _403
REMARK  160  A    between atoms: _409  and  _411
REMARK  161  A    between atoms: _411  and  _412
REMARK  162  A    between atoms: _411  and  _414
REMARK  163  A    between atoms: _414  and  _415
REMARK  164  A    between atoms: _418  and  _420
REMARK  165  A    between atoms: _420  and  _421
REMARK  166  A    between atoms: _420  and  _423
REMARK  167  A    between atoms: _423  and  _424
REMARK  168  A    between atoms: _424  and  _425
REMARK  169  A    between atoms: _425  and  _426
REMARK  170  A    between atoms: _435  and  _437
REMARK  171  A    between atoms: _437  and  _438
REMARK  172  A    between atoms: _437  and  _440
REMARK  173  A    between atoms: _440  and  _441
REMARK  174  A    between atoms: _446  and  _448
REMARK  175  A    between atoms: _448  and  _449
REMARK  176  A    between atoms: _448  and  _451
REMARK  177  A    between atoms: _451  and  _452
REMARK  178  A    between atoms: _452  and  _453
REMARK  179  A    between atoms: _453  and  _454
REMARK  180  A    between atoms: _463  and  _465
REMARK  181  A    between atoms: _465  and  _466
REMARK  182  A    between atoms: _469  and  _471
REMARK  183  A    between atoms: _471  and  _472
REMARK  184  A    between atoms: _474  and  _476
REMARK  185  A    between atoms: _476  and  _477
REMARK  186  A    between atoms: _476  and  _479
REMARK  187  A    between atoms: _479  and  _480
REMARK  188  A    between atoms: _490  and  _492
REMARK  189  A    between atoms: _492  and  _493
REMARK  190  A    between atoms: _492  and  _495
REMARK  191  A    between atoms: _495  and  _496
REMARK  192  A    between atoms: _497  and  _499
REMARK  193  A    between atoms: _499  and  _500
REMARK  194  A    between atoms: _503  and  _505
REMARK  195  A    between atoms: _505  and  _506
REMARK  196  A    between atoms: _505  and  _508
REMARK  197  A    between atoms: _508  and  _509
REMARK  198  A    between atoms: _512  and  _514
REMARK  199  A    between atoms: _514  and  _515
REMARK  200  A    between atoms: _514  and  _517
REMARK  201  A    between atoms: _517  and  _518
REMARK  202  A    between atoms: _523  and  _524
REMARK  203  A    between atoms: _526  and  _528
REMARK  204  A    between atoms: _528  and  _529
REMARK  205  A    between atoms: _528  and  _531
REMARK  206  A    between atoms: _531  and  _532
REMARK  207  A    between atoms: _534  and  _536
REMARK  208  A    between atoms: _536  and  _537
REMARK  209  A    between atoms: _536  and  _539
REMARK  210  A    between atoms: _539  and  _540
REMARK  211  A    between atoms: _546  and  _548
REMARK  212  A    between atoms: _548  and  _549
REMARK  213  A    between atoms: _548  and  _551
REMARK  214  A    between atoms: _551  and  _552
REMARK  215  A    between atoms: _555  and  _557
REMARK  216  A    between atoms: _557  and  _558
REMARK  217  A    between atoms: _557  and  _560
REMARK  218  A    between atoms: _560  and  _561
REMARK  219  A    between atoms: _563  and  _565
REMARK  220  A    between atoms: _565  and  _566
REMARK  221  A    between atoms: _565  and  _568
REMARK  222  A    between atoms: _568  and  _569
REMARK  223  A    between atoms: _574  and  _576
REMARK  224  A    between atoms: _576  and  _577
REMARK  225  A    between atoms: _576  and  _579
REMARK  226  A    between atoms: _579  and  _580
REMARK  227  A    between atoms: _585  and  _587
REMARK  228  A    between atoms: _587  and  _588
REMARK  229  A    between atoms: _587  and  _590
REMARK  230  A    between atoms: _590  and  _591
REMARK  231  A    between atoms: _594  and  _596
REMARK  232  A    between atoms: _596  and  _597
REMARK  233  A    between atoms: _600  and  _602
REMARK  234  A    between atoms: _602  and  _603
REMARK  235  A    between atoms: _602  and  _605
REMARK  236  A    between atoms: _605  and  _606
REMARK  237  A    between atoms: _611  and  _612
REMARK  238  A    between atoms: _614  and  _616
REMARK  239  A    between atoms: _616  and  _617
REMARK  240  A    between atoms: _616  and  _619
REMARK  241  A    between atoms: _619  and  _620
REMARK  242  A    between atoms: _625  and  _626
REMARK  243  A    between atoms: _628  and  _630
REMARK  244  A    between atoms: _630  and  _631
REMARK  245  A    between atoms: _630  and  _633
REMARK  246  A    between atoms: _636  and  _638
REMARK  247  A    between atoms: _638  and  _639
REMARK  248  A    between atoms: _638  and  _641
REMARK  249  A    between atoms: _641  and  _642
REMARK  250  A    between atoms: _647  and  _649
REMARK  251  A    between atoms: _649  and  _650
REMARK  252  A    between atoms: _653  and  _655
REMARK  253  A    between atoms: _655  and  _656
REMARK  254  A    between atoms: _655  and  _658
REMARK  255  A    between atoms: _658  and  _659
REMARK  256  A    between atoms: _659  and  _660
REMARK  257  A    between atoms: _660  and  _661
REMARK  258  A    between atoms: _670  and  _672
REMARK  259  A    between atoms: _672  and  _673
REMARK  260  A    between atoms: _672  and  _675
REMARK  261  A    between atoms: _675  and  _676
REMARK  262  A    between atoms: _679  and  _681
REMARK  263  A    between atoms: _681  and  _682
REMARK  264  A    between atoms: _681  and  _684
REMARK  265  A    between atoms: _684  and  _685
REMARK  266  A    between atoms: _688  and  _690
REMARK  267  A    between atoms: _690  and  _691
REMARK  268  A    between atoms: _690  and  _693
REMARK  269  A    between atoms: _693  and  _694
REMARK                            x       y       z     vdW  Elec       q    Type
REMARK                         _______ _______ _______ _____ _____    ______ ____
ROOT
ATOM      1  CA  ARG A   1       5.453  28.788  23.469  0.00  0.00    +0.145 C 
ENDROOT
BRANCH   1   2
ATOM      2  C   ARG A   1       6.961  28.714  23.587  0.00  0.00    +0.238 C 
ATOM      3  O   ARG A   1       7.413  28.365  24.683  0.00  0.00    -0.274 OA
ATOM      4  N   HIS A   2       7.744  28.933  22.536  0.00  0.00    -0.298 N 
ATOM      5  H   HIS A   2       7.317  29.125  21.607  0.00  0.00    +0.150 HD
BRANCH   4   6
ATOM      6  CA  HIS A   2       9.200  28.907  22.673  0.00  0.00    +0.143 C 
BRANCH   6   7
ATOM      7  C   HIS A   2       9.662  30.043  23.593  0.00  0.00    +0.227 C 
ATOM      8  O   HIS A   2      10.593  29.778  24.397  0.00  0.00    -0.286 OA
ENDBRANCH   6   7
BRANCH   6   9
ATOM      9  CB  HIS A   2       9.932  29.063  21.343  0.00  0.00    +0.075 C 
BRANCH   9  10
ATOM     10  CG  HIS A   2       9.944  27.750  20.569  0.00  0.00    +0.082 A 
ATOM     11  ND1 HIS A   2      10.772  26.714  20.928  0.00  0.00    -0.227 NA
ATOM     12  CE1 HIS A   2      10.568  25.681  20.099  0.00  0.00    +0.199 A 
ATOM     13  NE2 HIS A   2       9.659  26.068  19.231  0.00  0.00    -0.221 NA
ATOM     14  CD2 HIS A   2       9.215  27.352  19.506  0.00  0.00    +0.115 A 
ENDBRANCH   9  10
ENDBRANCH   6   9
ENDBRANCH   4   6
ENDBRANCH   1   2
BRANCH   1  15
ATOM     15  N   ARG A   1       5.073  29.953  22.639  0.00  0.00    -0.238 NA
ATOM     16  H   ARG A   1       4.604  29.823  21.720  0.00  0.00    +0.142 HD
ENDBRANCH   1  15
BRANCH   1  17
ATOM     17  CB  ARG A   1       4.844  27.505  22.897  0.00  0.00    +0.030 C 
BRANCH  17  18
ATOM     18  CG  ARG A   1       3.313  27.532  22.943  0.00  0.00    +0.045 C 
BRANCH  18  19
ATOM     19  CD  ARG A   1       2.648  26.457  22.094  0.00  0.00    +0.174 C 
BRANCH  19  20
ATOM     20  NE  ARG A   1       3.102  25.106  22.512  0.00  0.00    -0.265 N 
ATOM     21  HE  ARG A   1       3.597  25.003  23.421  0.00  0.00    +0.259 HD
ATOM     22  CZ  ARG A   1       2.897  24.012  21.759  0.00  0.00    +0.342 C 
ATOM     23  NH2 ARG A   1       3.351  22.826  22.207  0.00  0.00    -0.292 N 
ATOM     24 HH21 ARG A   1       3.849  22.770  23.119  0.00  0.00    +0.255 HD
ATOM     25 HH22 ARG A   1       3.204  21.966  21.641  0.00  0.00    +0.255 HD
ATOM     26  NH1 ARG A   1       2.279  24.084  20.588  0.00  0.00    -0.292 N 
ATOM     27 HH11 ARG A   1       1.941  25.002  20.234  0.00  0.00    +0.255 HD
ATOM     28 HH12 ARG A   1       2.132  23.223  20.024  0.00  0.00    +0.255 HD
ENDBRANCH  19  20
ENDBRANCH  18  19
ENDBRANCH  17  18
ENDBRANCH   1  17
TORSDOF 10
REMARK  Name = ../refined-set-2016/1b3f/1b3f_pocket.pdb
REMARK  269 active torsions:
REMARK  status: ('A' for Active; 'I' for Inactive)
REMARK    1  A    between atoms: _1  and  _3
REMARK    2  A    between atoms: _3  and  _4
REMARK    3  A    between atoms: _3  and  _6
REMARK    4  A    between atoms: _6  and  _7
REMARK    5  A    between atoms: _12  and  _14
REMARK    6  A    between atoms: _14  and  _15
REMARK    7  A    between atoms: _17  and  _19
REMARK    8  A    between atoms: _19  and  _20
REMARK    9  A    between atoms: _19  and  _22
REMARK   10  A    between atoms: _22  and  _23
REMARK   11  A    between atoms: _25  and  _27
REMARK   12  A    between atoms: _27  and  _28
REMARK   13  A    between atoms: _27  and  _30
REMARK   14  A    between atoms: _30  and  _31
REMARK   15  A    between atoms: _31  and  _32
REMARK   16  A    between atoms: _37  and  _39
REMARK   17  A    between atoms: _39  and  _40
REMARK   18  A    between atoms: _39  and  _42
REMARK   19  A    between atoms: _42  and  _43
REMARK   20  A    between atoms: _46  and  _48
REMARK   21  A    between atoms: _48  and  _49
REMARK   22  A    between atoms: _48  and  _51
REMARK   23  A    between atoms: _52  and  _53
REMARK   24  A    between atoms: _56  and  _58
REMARK   25  A    between atoms: _58  and  _59
REMARK   26  A    between atoms: _61  and  _63
REMARK   27  A    between atoms: _63  and  _64
REMARK   28  A    between atoms: _63  and  _66
REMARK   29  A    between atoms: _70  and  _71
REMARK   30  A    between atoms: _76  and  _78
REMARK   31  A    between atoms: _78  and  _79
REMARK   32  A    between atoms: _78  and  _81
REMARK   33  A    between atoms: _81  and  _82
REMARK   34  A    between atoms: _82  and  _83
REMARK   35  A    between atoms: _86  and  _88
REMARK   36  A    between atoms: _88  and  _89
REMARK   37  A    between atoms: _88  and  _91
REMARK   38  A    between atoms: _91  and  _92
REMARK   39  A    between atoms: _94  and  _96
REMARK   40  A    between atoms: _96  and  _97
REMARK   41  A    between atoms: _96  and  _99
REMARK   42  A    between atoms: _99  and  _100
REMARK   43  A    between atoms: _105  and  _107
REMARK   44  A    between atoms: _107  and  _108
REMARK   45  A    between atoms: _107  and  _110
REMARK   46  A    between atoms: _110  and  _111
REMARK   47  A    between atoms: _111  and  _112
REMARK   48  A    between atoms: _112  and  _113
REMARK   49  A    between atoms: _123  and  _124
REMARK   50  A    between atoms: _129  and  _131
REMARK   51  A    between atoms: _131  and  _132
REMARK   52  A    between atoms: _131  and  _134
REMARK   53  A    between atoms: _134  and  _135
REMARK   54  A    between atoms: _140  and  _141
REMARK   55  A    between atoms: _143  and  _145
REMARK   56  A    between atoms: _145  and  _146
REMARK   57  A    between atoms: _145  and  _148
REMARK   58  A    between atoms: _148  and  _149
REMARK   59  A    between atoms: _154  and  _155
REMARK   60  A    between atoms: _157  and  _159
REMARK   61  A    between atoms: _159  and  _160
REMARK   62  A    between atoms: _159  and  _162
REMARK   63  A    between atoms: _165  and  _167
REMARK   64  A    between atoms: _167  and  _168
REMARK   65  A    between atoms: _167  and  _170
REMARK   66  A    between atoms: _170  and  _171
REMARK   67  A    between atoms: _177  and  _178
REMARK   68  A    between atoms: _183  and  _185
REMARK   69  A    between atoms: _185  and  _186
REMARK   70  A    between atoms: _185  and  _188
REMARK   71  A    between atoms: _188  and  _189
REMARK   72  A    between atoms: _191  and  _193
REMARK   73  A    between atoms: _193  and  _194
REMARK   74  A    between atoms: _193  and  _196
REMARK   75  A    between atoms: _196  and  _197
REMARK   76  A    between atoms: _197  and  _198
REMARK   77  A    between atoms: _201  and  _203
REMARK   78  A    between atoms: _203  and  _204
REMARK   79  A    between atoms: _203  and  _206
REMARK   80  A    between atoms: _206  and  _207
REMARK   81  A    between atoms: _212  and  _213
REMARK   82  A    between atoms: _215  and  _217
REMARK   83  A    between atoms: _217  and  _218
REMARK   84  A    between atoms: _217  and  _220
REMARK   85  A    between atoms: _220  and  _221
REMARK   86  A    between atoms: _226  and  _228
REMARK   87  A    between atoms: _228  and  _229
REMARK   88  A    between atoms: _228  and  _231
REMARK   89  A    between atoms: _231  and  _232
REMARK   90  A    between atoms: _237  and  _239
REMARK   91  A    between atoms: _239  and  _240
REMARK   92  A    between atoms: _239  and  _242
REMARK   93  A    between atoms: _242  and  _243
REMARK   94  A    between atoms: _243  and  _244
REMARK   95  A    between atoms: _246  and  _248
REMARK   96  A    between atoms: _248  and  _249
REMARK   97  A    between atoms: _248  and  _251
REMARK   98  A    between atoms: _251  and  _252
REMARK   99  A    between atoms: _257  and  _258
REMARK  100  A    between atoms: _260  and  _262
REMARK  101  A    between atoms: _262  and  _263
REMARK  102  A    between atoms: _262  and  _265
REMARK  103  A    between atoms: _265  and  _266
REMARK  104  A    between atoms: _269  and  _271
REMARK  105  A    between atoms: _271  and  _272
REMARK  106  A    between atoms: _271  and  _274
REMARK  107  A    between atoms: _274  and  _275
REMARK  108  A    between atoms: _275  and  _496
REMARK  109  A    between atoms: _276  and  _278
REMARK  110  A    between atoms: _278  and  _279
REMARK  111  A    between atoms: _278  and  _281
REMARK  112  A    between atoms: _281  and  _282
REMARK  113  A    between atoms: _285  and  _287
REMARK  114  A    between atoms: _287  and  _288
REMARK  115  A    between atoms: _287  and  _290
REMARK  116  A    between atoms: _290  and  _291
REMARK  117  A    between atoms: _296  and  _297
REMARK  118  A    between atoms: _299  and  _301
REMARK  119  A    between atoms: _301  and  _302
REMARK  120  A    between atoms: _301  and  _304
REMARK  121  A    between atoms: _304  and  _305
REMARK  122  A    between atoms: _310  and  _311
REMARK  123  A    between atoms: _313  and  _315
REMARK  124  A    between atoms: _315  and  _316
REMARK  125  A    between atoms: _315  and  _318
REMARK  126  A    between atoms: _318  and  _319
REMARK  127  A    between atoms: _319  and  _320
REMARK  128  A    between atoms: _323  and  _325
REMARK  129  A    between atoms: _325  and  _326
REMARK  130  A    between atoms: _325  and  _328
REMARK  131  A    between atoms: _328  and  _329
REMARK  132  A    between atoms: _329  and  _330
REMARK  133  A    between atoms: _330  and  _331
REMARK  134  A    between atoms: _331  and  _332
REMARK  135  A    between atoms: _336  and  _338
REMARK  136  A    between atoms: _338  and  _339
REMARK  137  A    between atoms: _338  and  _341
REMARK  138  A    between atoms: _341  and  _342
REMARK  139  A    between atoms: _347  and  _348
REMARK  140  A    between atoms: _350  and  _352
REMARK  141  A    between atoms: _352  and  _353
REMARK  142  A    between atoms: _352  and  _355
REMARK  143  A    between atoms: _355  and  _356
REMARK  144  A    between atoms: _361  and  _363
REMARK  145  A    between atoms: _363  and  _364
REMARK  146  A    between atoms: _363  and  _366
REMARK  147  A    between atoms: _366  and  _367
REMARK  148  A    between atoms: _370  and  _372
REMARK  149  A    between atoms: _372  and  _373
REMARK  150  A    between atoms: _372  and  _375
REMARK  151  A    between atoms: _375  and  _376
REMARK  152  A    between atoms: _381  and  _383
REMARK  153  A    between atoms: _383  and  _384
REMARK  154  A    between atoms: _383  and  _386
REMARK  155  A    between atoms: _386  and  _387
REMARK  156  A    between atoms: _397  and  _399
REMARK  157  A    between atoms: _399  and  _400
REMARK  158  A    between atoms: _399  and  _402
REMARK  159  A    between atoms: _402  and  _403
REMARK  160  A    between atoms: _409  and  _411
REMARK  161  A    between atoms: _411  and  _412
REMARK  162  A    between atoms: _411  and  _414
REMARK  163  A    between atoms: _414  and  _415
REMARK  164  A    between atoms: _418  and  _420
REMARK  165  A    between atoms: _420  and  _421
REMARK  166  A    between atoms: _420  and  _423
REMARK  167  A    between atoms: _423  and  _424
REMARK  168  A    between atoms: _424  and  _425
REMARK  169  A    between atoms: _425  and  _426
REMARK  170  A    between atoms: _435  and  _437
REMARK  171  A    between atoms: _437  and  _438
REMARK  172  A    between atoms: _437  and  _440
REMARK  173  A    between atoms: _440  and  _441
REMARK  174  A    between atoms: _446  and  _448
REMARK  175  A    between atoms: _448  and  _449
REMARK  176  A    between atoms: _448  and  _451
REMARK  177  A    between atoms: _451  and  _452
REMARK  178  A    between atoms: _452  and  _453
REMARK  179  A    between atoms: _453  and  _454
REMARK  180  A    between atoms: _463  and  _465
REMARK  181  A    between atoms: _465  and  _466
REMARK  182  A    between atoms: _469  and  _471
REMARK  183  A    between atoms: _471  and  _472
REMARK  184  A    between atoms: _474  and  _476
REMARK  185  A    between atoms: _476  and  _477
REMARK  186  A    between atoms: _476  and  _479
REMARK  187  A    between atoms: _479  and  _480
REMARK  188  A    between atoms: _490  and  _492
REMARK  189  A    between atoms: _492  and  _493
REMARK  190  A    between atoms: _492  and  _495
REMARK  191  A    between atoms: _495  and  _496
REMARK  192  A    between atoms: _497  and  _499
REMARK  193  A    between atoms: _499  and  _500
REMARK  194  A    between atoms: _503  and  _505
REMARK  195  A    between atoms: _505  and  _506
REMARK  196  A    between atoms: _505  and  _508
REMARK  197  A    between atoms: _508  and  _509
REMARK  198  A    between atoms: _512  and  _514
REMARK  199  A    between atoms: _514  and  _515
REMARK  200  A    between atoms: _514  and  _517
REMARK  201  A    between atoms: _517  and  _518
REMARK  202  A    between atoms: _523  and  _524
REMARK  203  A    between atoms: _526  and  _528
REMARK  204  A    between atoms: _528  and  _529
REMARK  205  A    between atoms: _528  and  _531
REMARK  206  A    between atoms: _531  and  _532
REMARK  207  A    between atoms: _534  and  _536
REMARK  208  A    between atoms: _536  and  _537
REMARK  209  A    between atoms: _536  and  _539
REMARK  210  A    between atoms: _539  and  _540
REMARK  211  A    between atoms: _546  and  _548
REMARK  212  A    between atoms: _548  and  _549
REMARK  213  A    between atoms: _548  and  _551
REMARK  214  A    between atoms: _551  and  _552
REMARK  215  A    between atoms: _555  and  _557
REMARK  216  A    between atoms: _557  and  _558
REMARK  217  A    between atoms: _557  and  _560
REMARK  218  A    between atoms: _560  and  _561
REMARK  219  A    between atoms: _563  and  _565
REMARK  220  A    between atoms: _565  and  _566
REMARK  221  A    between atoms: _565  and  _568
REMARK  222  A    between atoms: _568  and  _569
REMARK  223  A    between atoms: _574  and  _576
REMARK  224  A    between atoms: _576  and  _577
REMARK  225  A    between atoms: _576  and  _579
REMARK  226  A    between atoms: _579  and  _580
REMARK  227  A    between atoms: _585  and  _587
REMARK  228  A    between atoms: _587  and  _588
REMARK  229  A    between atoms: _587  and  _590
REMARK  230  A    between atoms: _590  and  _591
REMARK  231  A    between atoms: _594  and  _596
REMARK  232  A    between atoms: _596  and  _597
REMARK  233  A    between atoms: _600  and  _602
REMARK  234  A    between atoms: _602  and  _603
REMARK  235  A    between atoms: _602  and  _605
REMARK  236  A    between atoms: _605  and  _606
REMARK  237  A    between atoms: _611  and  _612
REMARK  238  A    between atoms: _614  and  _616
REMARK  239  A    between atoms: _616  and  _617
REMARK  240  A    between atoms: _616  and  _619
REMARK  241  A    between atoms: _619  and  _620
REMARK  242  A    between atoms: _625  and  _626
REMARK  243  A    between atoms: _628  and  _630
REMARK  244  A    between atoms: _630  and  _631
REMARK  245  A    between atoms: _630  and  _633
REMARK  246  A    between atoms: _636  and  _638
REMARK  247  A    between atoms: _638  and  _639
REMARK  248  A    between atoms: _638  and  _641
REMARK  249  A    between atoms: _641  and  _642
REMARK  250  A    between atoms: _647  and  _649
REMARK  251  A    between atoms: _649  and  _650
REMARK  252  A    between atoms: _653  and  _655
REMARK  253  A    between atoms: _655  and  _656
REMARK  254  A    between atoms: _655  and  _658
REMARK  255  A    between atoms: _658  and  _659
REMARK  256  A    between atoms: _659  and  _660
REMARK  257  A    between atoms: _660  and  _661
REMARK  258  A    between atoms: _670  and  _672
REMARK  259  A    between atoms: _672  and  _673
REMARK  260  A    between atoms: _672  and  _675
REMARK  261  A    between atoms: _675  and  _676
REMARK  262  A    between atoms: _679  and  _681
REMARK  263  A    between atoms: _681  and  _682
REMARK  264  A    between atoms: _681  and  _684
REMARK  265  A    between atoms: _684  and  _685
REMARK  266  A    between atoms: _688  and  _690
REMARK  267  A    between atoms: _690  and  _691
REMARK  268  A    between atoms: _690  and  _693
REMARK  269  A    between atoms: _693  and  _694
REMARK                            x       y       z     vdW  Elec       q    Type
REMARK                         _______ _______ _______ _____ _____    ______ ____
ROOT
ATOM      1  C   SER A   1       9.863  11.840  19.497  0.00  0.00    +0.241 C 
ATOM      2  N   PHE A   2       9.225  11.226  20.489  0.00  0.00    -0.298 N 
ATOM      3  H   PHE A   2       9.228  10.188  20.546  0.00  0.00    +0.150 HD
ATOM      4  O   SER A   1       9.765  13.043  19.262  0.00  0.00    -0.274 OA
ENDROOT
BRANCH   1   5
ATOM      5  CA  SER A   1      10.767  10.958  18.614  0.00  0.00    +0.174 C 
BRANCH   5   6
ATOM      6  N   SER A   1      11.284   9.840  19.414  0.00  0.00    -0.236 NA
ATOM      7  H   SER A   1      11.012   8.866  19.169  0.00  0.00    +0.142 HD
ENDBRANCH   5   6
BRANCH   5   8
ATOM      8  CB  SER A   1       9.969  10.420  17.414  0.00  0.00    +0.163 C 
BRANCH   8   9
ATOM      9  OG  SER A   1       9.691  11.507  16.556  0.00  0.00    -0.380 OA
ATOM     10  H   SER A   1      10.542  11.910  16.250  0.00  0.00    +0.211 HD
ENDBRANCH   8   9
ENDBRANCH   5   8
ENDBRANCH   1   5
BRANCH   2  11
ATOM     11  CA  PHE A   2       8.524  12.007  21.492  0.00  0.00    +0.141 C 
BRANCH  11  12
ATOM     12  C   PHE A   2       9.488  12.382  22.616  0.00  0.00    +0.227 C 
ATOM     13  O   PHE A   2       9.599  13.554  22.996  0.00  0.00    -0.286 OA
ENDBRANCH  11  12
BRANCH  11  14
ATOM     14  CB  PHE A   2       7.340  11.191  22.058  0.00  0.00    +0.054 C 
BRANCH  14  15
ATOM     15  CG  PHE A   2       6.083  11.326  21.206  0.00  0.00    -0.020 A 
ATOM     16  CD2 PHE A   2       5.070  12.149  21.709  0.00  0.00    -0.004 A 
ATOM     17  CE2 PHE A   2       3.906  12.337  20.972  0.00  0.00    -0.000 A 
ATOM     18  CZ  PHE A   2       3.763  11.704  19.754  0.00  0.00    -0.000 A 
ATOM     19  CE1 PHE A   2       4.769  10.895  19.258  0.00  0.00    -0.000 A 
ATOM     20  CD1 PHE A   2       5.958  10.707  19.998  0.00  0.00    -0.004 A 
ENDBRANCH  14  15
ENDBRANCH  11  14
ENDBRANCH   2  11
TORSDOF 8
REMARK  Name = ../refined-set-2016/1b3f/1b3f_pocket.pdb
REMARK  269 active torsions:
REMARK  status: ('A' for Active; 'I' for Inactive)
REMARK    1  A    between atoms: _1  and  _3
REMARK    2  A    between atoms: _3  and  _4
REMARK    3  A    between atoms: _3  and  _6
REMARK    4  A    between atoms: _6  and  _7
REMARK    5  A    between atoms: _12  and  _14
REMARK    6  A    between atoms: _14  and  _15
REMARK    7  A    between atoms: _17  and  _19
REMARK    8  A    between atoms: _19  and  _20
REMARK    9  A    between atoms: _19  and  _22
REMARK   10  A    between atoms: _22  and  _23
REMARK   11  A    between atoms: _25  and  _27
REMARK   12  A    between atoms: _27  and  _28
REMARK   13  A    between atoms: _27  and  _30
REMARK   14  A    between atoms: _30  and  _31
REMARK   15  A    between atoms: _31  and  _32
REMARK   16  A    between atoms: _37  and  _39
REMARK   17  A    between atoms: _39  and  _40
REMARK   18  A    between atoms: _39  and  _42
REMARK   19  A    between atoms: _42  and  _43
REMARK   20  A    between atoms: _46  and  _48
REMARK   21  A    between atoms: _48  and  _49
REMARK   22  A    between atoms: _48  and  _51
REMARK   23  A    between atoms: _52  and  _53
REMARK   24  A    between atoms: _56  and  _58
REMARK   25  A    between atoms: _58  and  _59
REMARK   26  A    between atoms: _61  and  _63
REMARK   27  A    between atoms: _63  and  _64
REMARK   28  A    between atoms: _63  and  _66
REMARK   29  A    between atoms: _70  and  _71
REMARK   30  A    between atoms: _76  and  _78
REMARK   31  A    between atoms: _78  and  _79
REMARK   32  A    between atoms: _78  and  _81
REMARK   33  A    between atoms: _81  and  _82
REMARK   34  A    between atoms: _82  and  _83
REMARK   35  A    between atoms: _86  and  _88
REMARK   36  A    between atoms: _88  and  _89
REMARK   37  A    between atoms: _88  and  _91
REMARK   38  A    between atoms: _91  and  _92
REMARK   39  A    between atoms: _94  and  _96
REMARK   40  A    between atoms: _96  and  _97
REMARK   41  A    between atoms: _96  and  _99
REMARK   42  A    between atoms: _99  and  _100
REMARK   43  A    between atoms: _105  and  _107
REMARK   44  A    between atoms: _107  and  _108
REMARK   45  A    between atoms: _107  and  _110
REMARK   46  A    between atoms: _110  and  _111
REMARK   47  A    between atoms: _111  and  _112
REMARK   48  A    between atoms: _112  and  _113
REMARK   49  A    between atoms: _123  and  _124
REMARK   50  A    between atoms: _129  and  _131
REMARK   51  A    between atoms: _131  and  _132
REMARK   52  A    between atoms: _131  and  _134
REMARK   53  A    between atoms: _134  and  _135
REMARK   54  A    between atoms: _140  and  _141
REMARK   55  A    between atoms: _143  and  _145
REMARK   56  A    between atoms: _145  and  _146
REMARK   57  A    between atoms: _145  and  _148
REMARK   58  A    between atoms: _148  and  _149
REMARK   59  A    between atoms: _154  and  _155
REMARK   60  A    between atoms: _157  and  _159
REMARK   61  A    between atoms: _159  and  _160
REMARK   62  A    between atoms: _159  and  _162
REMARK   63  A    between atoms: _165  and  _167
REMARK   64  A    between atoms: _167  and  _168
REMARK   65  A    between atoms: _167  and  _170
REMARK   66  A    between atoms: _170  and  _171
REMARK   67  A    between atoms: _177  and  _178
REMARK   68  A    between atoms: _183  and  _185
REMARK   69  A    between atoms: _185  and  _186
REMARK   70  A    between atoms: _185  and  _188
REMARK   71  A    between atoms: _188  and  _189
REMARK   72  A    between atoms: _191  and  _193
REMARK   73  A    between atoms: _193  and  _194
REMARK   74  A    between atoms: _193  and  _196
REMARK   75  A    between atoms: _196  and  _197
REMARK   76  A    between atoms: _197  and  _198
REMARK   77  A    between atoms: _201  and  _203
REMARK   78  A    between atoms: _203  and  _204
REMARK   79  A    between atoms: _203  and  _206
REMARK   80  A    between atoms: _206  and  _207
REMARK   81  A    between atoms: _212  and  _213
REMARK   82  A    between atoms: _215  and  _217
REMARK   83  A    between atoms: _217  and  _218
REMARK   84  A    between atoms: _217  and  _220
REMARK   85  A    between atoms: _220  and  _221
REMARK   86  A    between atoms: _226  and  _228
REMARK   87  A    between atoms: _228  and  _229
REMARK   88  A    between atoms: _228  and  _231
REMARK   89  A    between atoms: _231  and  _232
REMARK   90  A    between atoms: _237  and  _239
REMARK   91  A    between atoms: _239  and  _240
REMARK   92  A    between atoms: _239  and  _242
REMARK   93  A    between atoms: _242  and  _243
REMARK   94  A    between atoms: _243  and  _244
REMARK   95  A    between atoms: _246  and  _248
REMARK   96  A    between atoms: _248  and  _249
REMARK   97  A    between atoms: _248  and  _251
REMARK   98  A    between atoms: _251  and  _252
REMARK   99  A    between atoms: _257  and  _258
REMARK  100  A    between atoms: _260  and  _262
REMARK  101  A    between atoms: _262  and  _263
REMARK  102  A    between atoms: _262  and  _265
REMARK  103  A    between atoms: _265  and  _266
REMARK  104  A    between atoms: _269  and  _271
REMARK  105  A    between atoms: _271  and  _272
REMARK  106  A    between atoms: _271  and  _274
REMARK  107  A    between atoms: _274  and  _275
REMARK  108  A    between atoms: _275  and  _496
REMARK  109  A    between atoms: _276  and  _278
REMARK  110  A    between atoms: _278  and  _279
REMARK  111  A    between atoms: _278  and  _281
REMARK  112  A    between atoms: _281  and  _282
REMARK  113  A    between atoms: _285  and  _287
REMARK  114  A    between atoms: _287  and  _288
REMARK  115  A    between atoms: _287  and  _290
REMARK  116  A    between atoms: _290  and  _291
REMARK  117  A    between atoms: _296  and  _297
REMARK  118  A    between atoms: _299  and  _301
REMARK  119  A    between atoms: _301  and  _302
REMARK  120  A    between atoms: _301  and  _304
REMARK  121  A    between atoms: _304  and  _305
REMARK  122  A    between atoms: _310  and  _311
REMARK  123  A    between atoms: _313  and  _315
REMARK  124  A    between atoms: _315  and  _316
REMARK  125  A    between atoms: _315  and  _318
REMARK  126  A    between atoms: _318  and  _319
REMARK  127  A    between atoms: _319  and  _320
REMARK  128  A    between atoms: _323  and  _325
REMARK  129  A    between atoms: _325  and  _326
REMARK  130  A    between atoms: _325  and  _328
REMARK  131  A    between atoms: _328  and  _329
REMARK  132  A    between atoms: _329  and  _330
REMARK  133  A    between atoms: _330  and  _331
REMARK  134  A    between atoms: _331  and  _332
REMARK  135  A    between atoms: _336  and  _338
REMARK  136  A    between atoms: _338  and  _339
REMARK  137  A    between atoms: _338  and  _341
REMARK  138  A    between atoms: _341  and  _342
REMARK  139  A    between atoms: _347  and  _348
REMARK  140  A    between atoms: _350  and  _352
REMARK  141  A    between atoms: _352  and  _353
REMARK  142  A    between atoms: _352  and  _355
REMARK  143  A    between atoms: _355  and  _356
REMARK  144  A    between atoms: _361  and  _363
REMARK  145  A    between atoms: _363  and  _364
REMARK  146  A    between atoms: _363  and  _366
REMARK  147  A    between atoms: _366  and  _367
REMARK  148  A    between atoms: _370  and  _372
REMARK  149  A    between atoms: _372  and  _373
REMARK  150  A    between atoms: _372  and  _375
REMARK  151  A    between atoms: _375  and  _376
REMARK  152  A    between atoms: _381  and  _383
REMARK  153  A    between atoms: _383  and  _384
REMARK  154  A    between atoms: _383  and  _386
REMARK  155  A    between atoms: _386  and  _387
REMARK  156  A    between atoms: _397  and  _399
REMARK  157  A    between atoms: _399  and  _400
REMARK  158  A    between atoms: _399  and  _402
REMARK  159  A    between atoms: _402  and  _403
REMARK  160  A    between atoms: _409  and  _411
REMARK  161  A    between atoms: _411  and  _412
REMARK  162  A    between atoms: _411  and  _414
REMARK  163  A    between atoms: _414  and  _415
REMARK  164  A    between atoms: _418  and  _420
REMARK  165  A    between atoms: _420  and  _421
REMARK  166  A    between atoms: _420  and  _423
REMARK  167  A    between atoms: _423  and  _424
REMARK  168  A    between atoms: _424  and  _425
REMARK  169  A    between atoms: _425  and  _426
REMARK  170  A    between atoms: _435  and  _437
REMARK  171  A    between atoms: _437  and  _438
REMARK  172  A    between atoms: _437  and  _440
REMARK  173  A    between atoms: _440  and  _441
REMARK  174  A    between atoms: _446  and  _448
REMARK  175  A    between atoms: _448  and  _449
REMARK  176  A    between atoms: _448  and  _451
REMARK  177  A    between atoms: _451  and  _452
REMARK  178  A    between atoms: _452  and  _453
REMARK  179  A    between atoms: _453  and  _454
REMARK  180  A    between atoms: _463  and  _465
REMARK  181  A    between atoms: _465  and  _466
REMARK  182  A    between atoms: _469  and  _471
REMARK  183  A    between atoms: _471  and  _472
REMARK  184  A    between atoms: _474  and  _476
REMARK  185  A    between atoms: _476  and  _477
REMARK  186  A    between atoms: _476  and  _479
REMARK  187  A    between atoms: _479  and  _480
REMARK  188  A    between atoms: _490  and  _492
REMARK  189  A    between atoms: _492  and  _493
REMARK  190  A    between atoms: _492  and  _495
REMARK  191  A    between atoms: _495  and  _496
REMARK  192  A    between atoms: _497  and  _499
REMARK  193  A    between atoms: _499  and  _500
REMARK  194  A    between atoms: _503  and  _505
REMARK  195  A    between atoms: _505  and  _506
REMARK  196  A    between atoms: _505  and  _508
REMARK  197  A    between atoms: _508  and  _509
REMARK  198  A    between atoms: _512  and  _514
REMARK  199  A    between atoms: _514  and  _515
REMARK  200  A    between atoms: _514  and  _517
REMARK  201  A    between atoms: _517  and  _518
REMARK  202  A    between atoms: _523  and  _524
REMARK  203  A    between atoms: _526  and  _528
REMARK  204  A    between atoms: _528  and  _529
REMARK  205  A    between atoms: _528  and  _531
REMARK  206  A    between atoms: _531  and  _532
REMARK  207  A    between atoms: _534  and  _536
REMARK  208  A    between atoms: _536  and  _537
REMARK  209  A    between atoms: _536  and  _539
REMARK  210  A    between atoms: _539  and  _540
REMARK  211  A    between atoms: _546  and  _548
REMARK  212  A    between atoms: _548  and  _549
REMARK  213  A    between atoms: _548  and  _551
REMARK  214  A    between atoms: _551  and  _552
REMARK  215  A    between atoms: _555  and  _557
REMARK  216  A    between atoms: _557  and  _558
REMARK  217  A    between atoms: _557  and  _560
REMARK  218  A    between atoms: _560  and  _561
REMARK  219  A    between atoms: _563  and  _565
REMARK  220  A    between atoms: _565  and  _566
REMARK  221  A    between atoms: _565  and  _568
REMARK  222  A    between atoms: _568  and  _569
REMARK  223  A    between atoms: _574  and  _576
REMARK  224  A    between atoms: _576  and  _577
REMARK  225  A    between atoms: _576  and  _579
REMARK  226  A    between atoms: _579  and  _580
REMARK  227  A    between atoms: _585  and  _587
REMARK  228  A    between atoms: _587  and  _588
REMARK  229  A    between atoms: _587  and  _590
REMARK  230  A    between atoms: _590  and  _591
REMARK  231  A    between atoms: _594  and  _596
REMARK  232  A    between atoms: _596  and  _597
REMARK  233  A    between atoms: _600  and  _602
REMARK  234  A    between atoms: _602  and  _603
REMARK  235  A    between atoms: _602  and  _605
REMARK  236  A    between atoms: _605  and  _606
REMARK  237  A    between atoms: _611  and  _612
REMARK  238  A    between atoms: _614  and  _616
REMARK  239  A    between atoms: _616  and  _617
REMARK  240  A    between atoms: _616  and  _619
REMARK  241  A    between atoms: _619  and  _620
REMARK  242  A    between atoms: _625  and  _626
REMARK  243  A    between atoms: _628  and  _630
REMARK  244  A    between atoms: _630  and  _631
REMARK  245  A    between atoms: _630  and  _633
REMARK  246  A    between atoms: _636  and  _638
REMARK  247  A    between atoms: _638  and  _639
REMARK  248  A    between atoms: _638  and  _641
REMARK  249  A    between atoms: _641  and  _642
REMARK  250  A    between atoms: _647  and  _649
REMARK  251  A    between atoms: _649  and  _650
REMARK  252  A    between atoms: _653  and  _655
REMARK  253  A    between atoms: _655  and  _656
REMARK  254  A    between atoms: _655  and  _658
REMARK  255  A    between atoms: _658  and  _659
REMARK  256  A    between atoms: _659  and  _660
REMARK  257  A    between atoms: _660  and  _661
REMARK  258  A    between atoms: _670  and  _672
REMARK  259  A    between atoms: _672  and  _673
REMARK  260  A    between atoms: _672  and  _675
REMARK  261  A    between atoms: _675  and  _676
REMARK  262  A    between atoms: _679  and  _681
REMARK  263  A    between atoms: _681  and  _682
REMARK  264  A    between atoms: _681  and  _684
REMARK  265  A    between atoms: _684  and  _685
REMARK  266  A    between atoms: _688  and  _690
REMARK  267  A    between atoms: _690  and  _691
REMARK  268  A    between atoms: _690  and  _693
REMARK  269  A    between atoms: _693  and  _694
REMARK                            x       y       z     vdW  Elec       q    Type
REMARK                         _______ _______ _______ _____ _____    ______ ____
ROOT
ATOM      1  CA  THR A   1      11.634  16.711  23.050  0.00  0.00    +0.160 C 
ENDROOT
BRANCH   1   2
ATOM      2  N   THR A   1      12.096  15.335  22.977  0.00  0.00    -0.237 NA
ATOM      3  H   THR A   1      11.434  14.584  22.696  0.00  0.00    +0.142 HD
ENDBRANCH   1   2
BRANCH   1   4
ATOM      4  C   THR A   1      11.462  17.188  24.485  0.00  0.00    +0.227 C 
ATOM      5  O   THR A   1      11.234  18.399  24.627  0.00  0.00    -0.287 OA
ENDBRANCH   1   4
BRANCH   1   6
ATOM      6  CB  THR A   1      10.266  16.904  22.330  0.00  0.00    +0.134 C 
ATOM      7  CG2 THR A   1      10.382  16.378  20.905  0.00  0.00    +0.034 C 
BRANCH   6   8
ATOM      8  OG1 THR A   1       9.230  16.225  23.030  0.00  0.00    -0.383 OA
ATOM      9  HG1 THR A   1       9.438  15.258  23.069  0.00  0.00    +0.210 HD
ENDBRANCH   6   8
ENDBRANCH   1   6
TORSDOF 4
REMARK  Name = ../refined-set-2016/1b3f/1b3f_pocket.pdb
REMARK  269 active torsions:
REMARK  status: ('A' for Active; 'I' for Inactive)
REMARK    1  A    between atoms: _1  and  _3
REMARK    2  A    between atoms: _3  and  _4
REMARK    3  A    between atoms: _3  and  _6
REMARK    4  A    between atoms: _6  and  _7
REMARK    5  A    between atoms: _12  and  _14
REMARK    6  A    between atoms: _14  and  _15
REMARK    7  A    between atoms: _17  and  _19
REMARK    8  A    between atoms: _19  and  _20
REMARK    9  A    between atoms: _19  and  _22
REMARK   10  A    between atoms: _22  and  _23
REMARK   11  A    between atoms: _25  and  _27
REMARK   12  A    between atoms: _27  and  _28
REMARK   13  A    between atoms: _27  and  _30
REMARK   14  A    between atoms: _30  and  _31
REMARK   15  A    between atoms: _31  and  _32
REMARK   16  A    between atoms: _37  and  _39
REMARK   17  A    between atoms: _39  and  _40
REMARK   18  A    between atoms: _39  and  _42
REMARK   19  A    between atoms: _42  and  _43
REMARK   20  A    between atoms: _46  and  _48
REMARK   21  A    between atoms: _48  and  _49
REMARK   22  A    between atoms: _48  and  _51
REMARK   23  A    between atoms: _52  and  _53
REMARK   24  A    between atoms: _56  and  _58
REMARK   25  A    between atoms: _58  and  _59
REMARK   26  A    between atoms: _61  and  _63
REMARK   27  A    between atoms: _63  and  _64
REMARK   28  A    between atoms: _63  and  _66
REMARK   29  A    between atoms: _70  and  _71
REMARK   30  A    between atoms: _76  and  _78
REMARK   31  A    between atoms: _78  and  _79
REMARK   32  A    between atoms: _78  and  _81
REMARK   33  A    between atoms: _81  and  _82
REMARK   34  A    between atoms: _82  and  _83
REMARK   35  A    between atoms: _86  and  _88
REMARK   36  A    between atoms: _88  and  _89
REMARK   37  A    between atoms: _88  and  _91
REMARK   38  A    between atoms: _91  and  _92
REMARK   39  A    between atoms: _94  and  _96
REMARK   40  A    between atoms: _96  and  _97
REMARK   41  A    between atoms: _96  and  _99
REMARK   42  A    between atoms: _99  and  _100
REMARK   43  A    between atoms: _105  and  _107
REMARK   44  A    between atoms: _107  and  _108
REMARK   45  A    between atoms: _107  and  _110
REMARK   46  A    between atoms: _110  and  _111
REMARK   47  A    between atoms: _111  and  _112
REMARK   48  A    between atoms: _112  and  _113
REMARK   49  A    between atoms: _123  and  _124
REMARK   50  A    between atoms: _129  and  _131
REMARK   51  A    between atoms: _131  and  _132
REMARK   52  A    between atoms: _131  and  _134
REMARK   53  A    between atoms: _134  and  _135
REMARK   54  A    between atoms: _140  and  _141
REMARK   55  A    between atoms: _143  and  _145
REMARK   56  A    between atoms: _145  and  _146
REMARK   57  A    between atoms: _145  and  _148
REMARK   58  A    between atoms: _148  and  _149
REMARK   59  A    between atoms: _154  and  _155
REMARK   60  A    between atoms: _157  and  _159
REMARK   61  A    between atoms: _159  and  _160
REMARK   62  A    between atoms: _159  and  _162
REMARK   63  A    between atoms: _165  and  _167
REMARK   64  A    between atoms: _167  and  _168
REMARK   65  A    between atoms: _167  and  _170
REMARK   66  A    between atoms: _170  and  _171
REMARK   67  A    between atoms: _177  and  _178
REMARK   68  A    between atoms: _183  and  _185
REMARK   69  A    between atoms: _185  and  _186
REMARK   70  A    between atoms: _185  and  _188
REMARK   71  A    between atoms: _188  and  _189
REMARK   72  A    between atoms: _191  and  _193
REMARK   73  A    between atoms: _193  and  _194
REMARK   74  A    between atoms: _193  and  _196
REMARK   75  A    between atoms: _196  and  _197
REMARK   76  A    between atoms: _197  and  _198
REMARK   77  A    between atoms: _201  and  _203
REMARK   78  A    between atoms: _203  and  _204
REMARK   79  A    between atoms: _203  and  _206
REMARK   80  A    between atoms: _206  and  _207
REMARK   81  A    between atoms: _212  and  _213
REMARK   82  A    between atoms: _215  and  _217
REMARK   83  A    between atoms: _217  and  _218
REMARK   84  A    between atoms: _217  and  _220
REMARK   85  A    between atoms: _220  and  _221
REMARK   86  A    between atoms: _226  and  _228
REMARK   87  A    between atoms: _228  and  _229
REMARK   88  A    between atoms: _228  and  _231
REMARK   89  A    between atoms: _231  and  _232
REMARK   90  A    between atoms: _237  and  _239
REMARK   91  A    between atoms: _239  and  _240
REMARK   92  A    between atoms: _239  and  _242
REMARK   93  A    between atoms: _242  and  _243
REMARK   94  A    between atoms: _243  and  _244
REMARK   95  A    between atoms: _246  and  _248
REMARK   96  A    between atoms: _248  and  _249
REMARK   97  A    between atoms: _248  and  _251
REMARK   98  A    between atoms: _251  and  _252
REMARK   99  A    between atoms: _257  and  _258
REMARK  100  A    between atoms: _260  and  _262
REMARK  101  A    between atoms: _262  and  _263
REMARK  102  A    between atoms: _262  and  _265
REMARK  103  A    between atoms: _265  and  _266
REMARK  104  A    between atoms: _269  and  _271
REMARK  105  A    between atoms: _271  and  _272
REMARK  106  A    between atoms: _271  and  _274
REMARK  107  A    between atoms: _274  and  _275
REMARK  108  A    between atoms: _275  and  _496
REMARK  109  A    between atoms: _276  and  _278
REMARK  110  A    between atoms: _278  and  _279
REMARK  111  A    between atoms: _278  and  _281
REMARK  112  A    between atoms: _281  and  _282
REMARK  113  A    between atoms: _285  and  _287
REMARK  114  A    between atoms: _287  and  _288
REMARK  115  A    between atoms: _287  and  _290
REMARK  116  A    between atoms: _290  and  _291
REMARK  117  A    between atoms: _296  and  _297
REMARK  118  A    between atoms: _299  and  _301
REMARK  119  A    between atoms: _301  and  _302
REMARK  120  A    between atoms: _301  and  _304
REMARK  121  A    between atoms: _304  and  _305
REMARK  122  A    between atoms: _310  and  _311
REMARK  123  A    between atoms: _313  and  _315
REMARK  124  A    between atoms: _315  and  _316
REMARK  125  A    between atoms: _315  and  _318
REMARK  126  A    between atoms: _318  and  _319
REMARK  127  A    between atoms: _319  and  _320
REMARK  128  A    between atoms: _323  and  _325
REMARK  129  A    between atoms: _325  and  _326
REMARK  130  A    between atoms: _325  and  _328
REMARK  131  A    between atoms: _328  and  _329
REMARK  132  A    between atoms: _329  and  _330
REMARK  133  A    between atoms: _330  and  _331
REMARK  134  A    between atoms: _331  and  _332
REMARK  135  A    between atoms: _336  and  _338
REMARK  136  A    between atoms: _338  and  _339
REMARK  137  A    between atoms: _338  and  _341
REMARK  138  A    between atoms: _341  and  _342
REMARK  139  A    between atoms: _347  and  _348
REMARK  140  A    between atoms: _350  and  _352
REMARK  141  A    between atoms: _352  and  _353
REMARK  142  A    between atoms: _352  and  _355
REMARK  143  A    between atoms: _355  and  _356
REMARK  144  A    between atoms: _361  and  _363
REMARK  145  A    between atoms: _363  and  _364
REMARK  146  A    between atoms: _363  and  _366
REMARK  147  A    between atoms: _366  and  _367
REMARK  148  A    between atoms: _370  and  _372
REMARK  149  A    between atoms: _372  and  _373
REMARK  150  A    between atoms: _372  and  _375
REMARK  151  A    between atoms: _375  and  _376
REMARK  152  A    between atoms: _381  and  _383
REMARK  153  A    between atoms: _383  and  _384
REMARK  154  A    between atoms: _383  and  _386
REMARK  155  A    between atoms: _386  and  _387
REMARK  156  A    between atoms: _397  and  _399
REMARK  157  A    between atoms: _399  and  _400
REMARK  158  A    between atoms: _399  and  _402
REMARK  159  A    between atoms: _402  and  _403
REMARK  160  A    between atoms: _409  and  _411
REMARK  161  A    between atoms: _411  and  _412
REMARK  162  A    between atoms: _411  and  _414
REMARK  163  A    between atoms: _414  and  _415
REMARK  164  A    between atoms: _418  and  _420
REMARK  165  A    between atoms: _420  and  _421
REMARK  166  A    between atoms: _420  and  _423
REMARK  167  A    between atoms: _423  and  _424
REMARK  168  A    between atoms: _424  and  _425
REMARK  169  A    between atoms: _425  and  _426
REMARK  170  A    between atoms: _435  and  _437
REMARK  171  A    between atoms: _437  and  _438
REMARK  172  A    between atoms: _437  and  _440
REMARK  173  A    between atoms: _440  and  _441
REMARK  174  A    between atoms: _446  and  _448
REMARK  175  A    between atoms: _448  and  _449
REMARK  176  A    between atoms: _448  and  _451
REMARK  177  A    between atoms: _451  and  _452
REMARK  178  A    between atoms: _452  and  _453
REMARK  179  A    between atoms: _453  and  _454
REMARK  180  A    between atoms: _463  and  _465
REMARK  181  A    between atoms: _465  and  _466
REMARK  182  A    between atoms: _469  and  _471
REMARK  183  A    between atoms: _471  and  _472
REMARK  184  A    between atoms: _474  and  _476
REMARK  185  A    between atoms: _476  and  _477
REMARK  186  A    between atoms: _476  and  _479
REMARK  187  A    between atoms: _479  and  _480
REMARK  188  A    between atoms: _490  and  _492
REMARK  189  A    between atoms: _492  and  _493
REMARK  190  A    between atoms: _492  and  _495
REMARK  191  A    between atoms: _495  and  _496
REMARK  192  A    between atoms: _497  and  _499
REMARK  193  A    between atoms: _499  and  _500
REMARK  194  A    between atoms: _503  and  _505
REMARK  195  A    between atoms: _505  and  _506
REMARK  196  A    between atoms: _505  and  _508
REMARK  197  A    between atoms: _508  and  _509
REMARK  198  A    between atoms: _512  and  _514
REMARK  199  A    between atoms: _514  and  _515
REMARK  200  A    between atoms: _514  and  _517
REMARK  201  A    between atoms: _517  and  _518
REMARK  202  A    between atoms: _523  and  _524
REMARK  203  A    between atoms: _526  and  _528
REMARK  204  A    between atoms: _528  and  _529
REMARK  205  A    between atoms: _528  and  _531
REMARK  206  A    between atoms: _531  and  _532
REMARK  207  A    between atoms: _534  and  _536
REMARK  208  A    between atoms: _536  and  _537
REMARK  209  A    between atoms: _536  and  _539
REMARK  210  A    between atoms: _539  and  _540
REMARK  211  A    between atoms: _546  and  _548
REMARK  212  A    between atoms: _548  and  _549
REMARK  213  A    between atoms: _548  and  _551
REMARK  214  A    between atoms: _551  and  _552
REMARK  215  A    between atoms: _555  and  _557
REMARK  216  A    between atoms: _557  and  _558
REMARK  217  A    between atoms: _557  and  _560
REMARK  218  A    between atoms: _560  and  _561
REMARK  219  A    between atoms: _563  and  _565
REMARK  220  A    between atoms: _565  and  _566
REMARK  221  A    between atoms: _565  and  _568
REMARK  222  A    between atoms: _568  and  _569
REMARK  223  A    between atoms: _574  and  _576
REMARK  224  A    between atoms: _576  and  _577
REMARK  225  A    between atoms: _576  and  _579
REMARK  226  A    between atoms: _579  and  _580
REMARK  227  A    between atoms: _585  and  _587
REMARK  228  A    between atoms: _587  and  _588
REMARK  229  A    between atoms: _587  and  _590
REMARK  230  A    between atoms: _590  and  _591
REMARK  231  A    between atoms: _594  and  _596
REMARK  232  A    between atoms: _596  and  _597
REMARK  233  A    between atoms: _600  and  _602
REMARK  234  A    between atoms: _602  and  _603
REMARK  235  A    between atoms: _602  and  _605
REMARK  236  A    between atoms: _605  and  _606
REMARK  237  A    between atoms: _611  and  _612
REMARK  238  A    between atoms: _614  and  _616
REMARK  239  A    between atoms: _616  and  _617
REMARK  240  A    between atoms: _616  and  _619
REMARK  241  A    between atoms: _619  and  _620
REMARK  242  A    between atoms: _625  and  _626
REMARK  243  A    between atoms: _628  and  _630
REMARK  244  A    between atoms: _630  and  _631
REMARK  245  A    between atoms: _630  and  _633
REMARK  246  A    between atoms: _636  and  _638
REMARK  247  A    between atoms: _638  and  _639
REMARK  248  A    between atoms: _638  and  _641
REMARK  249  A    between atoms: _641  and  _642
REMARK  250  A    between atoms: _647  and  _649
REMARK  251  A    between atoms: _649  and  _650
REMARK  252  A    between atoms: _653  and  _655
REMARK  253  A    between atoms: _655  and  _656
REMARK  254  A    between atoms: _655  and  _658
REMARK  255  A    between atoms: _658  and  _659
REMARK  256  A    between atoms: _659  and  _660
REMARK  257  A    between atoms: _660  and  _661
REMARK  258  A    between atoms: _670  and  _672
REMARK  259  A    between atoms: _672  and  _673
REMARK  260  A    between atoms: _672  and  _675
REMARK  261  A    between atoms: _675  and  _676
REMARK  262  A    between atoms: _679  and  _681
REMARK  263  A    between atoms: _681  and  _682
REMARK  264  A    between atoms: _681  and  _684
REMARK  265  A    between atoms: _684  and  _685
REMARK  266  A    between atoms: _688  and  _690
REMARK  267  A    between atoms: _690  and  _691
REMARK  268  A    between atoms: _690  and  _693
REMARK  269  A    between atoms: _693  and  _694
REMARK                            x       y       z     vdW  Elec       q    Type
REMARK                         _______ _______ _______ _____ _____    ______ ____
ROOT
ATOM      1  CA  ASN A   3      11.072  21.641  24.445  0.00  0.00    +0.158 C 
ENDROOT
BRANCH   1   3
ATOM      2  C   ASN A   2      11.011  21.448  22.033  0.00  0.00    +0.241 C 
ATOM      3  N   ASN A   3      11.743  21.704  23.142  0.00  0.00    -0.297 N 
ATOM      4  H   ASN A   3      12.754  21.939  23.072  0.00  0.00    +0.150 HD
ATOM      5  O   ASN A   2       9.806  21.211  22.073  0.00  0.00    -0.273 OA
BRANCH   2   6
ATOM      6  CA  ASN A   2      11.700  21.404  20.665  0.00  0.00    +0.158 C 
BRANCH   6   8
ATOM      7  C   SER A   1      13.762  22.742  20.674  0.00  0.00    +0.241 C 
ATOM      8  N   ASN A   2      13.150  21.562  20.789  0.00  0.00    -0.297 N 
ATOM      9  H   ASN A   2      13.728  20.718  20.975  0.00  0.00    +0.150 HD
ATOM     10  O   SER A   1      13.126  23.768  20.422  0.00  0.00    -0.274 OA
BRANCH   7  11
ATOM     11  CA  SER A   1      15.258  22.874  20.868  0.00  0.00    +0.174 C 
BRANCH  11  12
ATOM     12  N   SER A   1      15.798  21.729  21.610  0.00  0.00    -0.236 NA
ATOM     13  H   SER A   1      16.464  21.094  21.126  0.00  0.00    +0.142 HD
ENDBRANCH  11  12
BRANCH  11  14
ATOM     14  CB  SER A   1      16.008  23.000  19.540  0.00  0.00    +0.163 C 
BRANCH  14  15
ATOM     15  OG  SER A   1      15.735  21.911  18.617  0.00  0.00    -0.380 OA
ATOM     16  H   SER A   1      14.767  21.889  18.411  0.00  0.00    +0.211 HD
ENDBRANCH  14  15
ENDBRANCH  11  14
ENDBRANCH   7  11
ENDBRANCH   6   8
BRANCH   6  17
ATOM     17  CB  ASN A   2      11.443  19.997  20.082  0.00  0.00    +0.114 C 
BRANCH  17  18
ATOM     18  CG  ASN A   2      11.971  19.834  18.653  0.00  0.00    +0.222 C 
ATOM     19  OD1 ASN A   2      12.784  18.930  18.447  0.00  0.00    -0.275 OA
ATOM     20  ND2 ASN A   2      11.436  20.628  17.719  0.00  0.00    -0.329 N 
ATOM     21 HD21 ASN A   2      10.756  21.366  17.991  0.00  0.00    +0.145 HD
ATOM     22 HD22 ASN A   2      11.700  20.507  16.720  0.00  0.00    +0.145 HD
ENDBRANCH  17  18
ENDBRANCH   6  17
ENDBRANCH   2   6
ENDBRANCH   1   3
BRANCH   1  23
ATOM     23  C   ASN A   3      10.350  22.943  24.799  0.00  0.00    +0.241 C 
ATOM     24  O   ASN A   3      10.906  23.833  25.442  0.00  0.00    -0.273 OA
ATOM     25  N   THR A   4       9.066  22.976  24.382  0.00  0.00    -0.295 N 
ATOM     26  H   THR A   4       8.666  22.175  23.853  0.00  0.00    +0.150 HD
BRANCH  25  27
ATOM     27  CA  THR A   4       8.242  24.150  24.681  0.00  0.00    +0.176 C 
BRANCH  27  28
ATOM     28  C   THR A   4       7.579  24.004  26.038  0.00  0.00    +0.243 C 
ATOM     29  N   ALA A   5       7.729  22.855  26.709  0.00  0.00    -0.298 N 
ATOM     30  H   ALA A   5       8.234  22.061  26.266  0.00  0.00    +0.150 HD
ATOM     31  O   THR A   4       6.901  24.941  26.512  0.00  0.00    -0.273 OA
BRANCH  29  32
ATOM     32  CA  ALA A   5       7.187  22.709  28.063  0.00  0.00    +0.137 C 
ATOM     33  CB  ALA A   5       7.038  21.238  28.477  0.00  0.00    +0.030 C 
BRANCH  32  34
ATOM     34  C   ALA A   5       8.139  23.424  29.020  0.00  0.00    +0.227 C 
ATOM     35  O   ALA A   5       7.820  23.689  30.195  0.00  0.00    -0.286 OA
ENDBRANCH  32  34
ENDBRANCH  29  32
ENDBRANCH  27  28
BRANCH  27  36
ATOM     36  CB  THR A   4       7.193  24.371  23.554  0.00  0.00    +0.137 C 
ATOM     37  CG2 THR A   4       7.878  24.953  22.325  0.00  0.00    +0.034 C 
BRANCH  36  38
ATOM     38  OG1 THR A   4       6.693  23.102  23.152  0.00  0.00    -0.382 OA
ATOM     39  HG1 THR A   4       6.269  22.655  23.927  0.00  0.00    +0.210 HD
ENDBRANCH  36  38
ENDBRANCH  27  36
ENDBRANCH  25  27
ENDBRANCH   1  23
BRANCH   1  40
ATOM     40  CB  ASN A   3      12.094  21.258  25.521  0.00  0.00    +0.114 C 
BRANCH  40  41
ATOM     41  CG  ASN A   3      11.629  21.047  26.916  0.00  0.00    +0.222 C 
ATOM     42  ND2 ASN A   3      12.461  20.302  27.680  0.00  0.00    -0.329 N 
ATOM     43 HD21 ASN A   3      12.195  20.062  28.656  0.00  0.00    +0.145 HD
ATOM     44 HD22 ASN A   3      13.366  19.969  27.291  0.00  0.00    +0.145 HD
ATOM     45  OD1 ASN A   3      10.569  21.416  27.425  0.00  0.00    -0.275 OA
ENDBRANCH  40  41
ENDBRANCH   1  40
TORSDOF 18
REMARK  Name = ../refined-set-2016/1b3f/1b3f_pocket.pdb
REMARK  269 active torsions:
REMARK  status: ('A' for Active; 'I' for Inactive)
REMARK    1  A    between atoms: _1  and  _3
REMARK    2  A    between atoms: _3  and  _4
REMARK    3  A    between atoms: _3  and  _6
REMARK    4  A    between atoms: _6  and  _7
REMARK    5  A    between atoms: _12  and  _14
REMARK    6  A    between atoms: _14  and  _15
REMARK    7  A    between atoms: _17  and  _19
REMARK    8  A    between atoms: _19  and  _20
REMARK    9  A    between atoms: _19  and  _22
REMARK   10  A    between atoms: _22  and  _23
REMARK   11  A    between atoms: _25  and  _27
REMARK   12  A    between atoms: _27  and  _28
REMARK   13  A    between atoms: _27  and  _30
REMARK   14  A    between atoms: _30  and  _31
REMARK   15  A    between atoms: _31  and  _32
REMARK   16  A    between atoms: _37  and  _39
REMARK   17  A    between atoms: _39  and  _40
REMARK   18  A    between atoms: _39  and  _42
REMARK   19  A    between atoms: _42  and  _43
REMARK   20  A    between atoms: _46  and  _48
REMARK   21  A    between atoms: _48  and  _49
REMARK   22  A    between atoms: _48  and  _51
REMARK   23  A    between atoms: _52  and  _53
REMARK   24  A    between atoms: _56  and  _58
REMARK   25  A    between atoms: _58  and  _59
REMARK   26  A    between atoms: _61  and  _63
REMARK   27  A    between atoms: _63  and  _64
REMARK   28  A    between atoms: _63  and  _66
REMARK   29  A    between atoms: _70  and  _71
REMARK   30  A    between atoms: _76  and  _78
REMARK   31  A    between atoms: _78  and  _79
REMARK   32  A    between atoms: _78  and  _81
REMARK   33  A    between atoms: _81  and  _82
REMARK   34  A    between atoms: _82  and  _83
REMARK   35  A    between atoms: _86  and  _88
REMARK   36  A    between atoms: _88  and  _89
REMARK   37  A    between atoms: _88  and  _91
REMARK   38  A    between atoms: _91  and  _92
REMARK   39  A    between atoms: _94  and  _96
REMARK   40  A    between atoms: _96  and  _97
REMARK   41  A    between atoms: _96  and  _99
REMARK   42  A    between atoms: _99  and  _100
REMARK   43  A    between atoms: _105  and  _107
REMARK   44  A    between atoms: _107  and  _108
REMARK   45  A    between atoms: _107  and  _110
REMARK   46  A    between atoms: _110  and  _111
REMARK   47  A    between atoms: _111  and  _112
REMARK   48  A    between atoms: _112  and  _113
REMARK   49  A    between atoms: _123  and  _124
REMARK   50  A    between atoms: _129  and  _131
REMARK   51  A    between atoms: _131  and  _132
REMARK   52  A    between atoms: _131  and  _134
REMARK   53  A    between atoms: _134  and  _135
REMARK   54  A    between atoms: _140  and  _141
REMARK   55  A    between atoms: _143  and  _145
REMARK   56  A    between atoms: _145  and  _146
REMARK   57  A    between atoms: _145  and  _148
REMARK   58  A    between atoms: _148  and  _149
REMARK   59  A    between atoms: _154  and  _155
REMARK   60  A    between atoms: _157  and  _159
REMARK   61  A    between atoms: _159  and  _160
REMARK   62  A    between atoms: _159  and  _162
REMARK   63  A    between atoms: _165  and  _167
REMARK   64  A    between atoms: _167  and  _168
REMARK   65  A    between atoms: _167  and  _170
REMARK   66  A    between atoms: _170  and  _171
REMARK   67  A    between atoms: _177  and  _178
REMARK   68  A    between atoms: _183  and  _185
REMARK   69  A    between atoms: _185  and  _186
REMARK   70  A    between atoms: _185  and  _188
REMARK   71  A    between atoms: _188  and  _189
REMARK   72  A    between atoms: _191  and  _193
REMARK   73  A    between atoms: _193  and  _194
REMARK   74  A    between atoms: _193  and  _196
REMARK   75  A    between atoms: _196  and  _197
REMARK   76  A    between atoms: _197  and  _198
REMARK   77  A    between atoms: _201  and  _203
REMARK   78  A    between atoms: _203  and  _204
REMARK   79  A    between atoms: _203  and  _206
REMARK   80  A    between atoms: _206  and  _207
REMARK   81  A    between atoms: _212  and  _213
REMARK   82  A    between atoms: _215  and  _217
REMARK   83  A    between atoms: _217  and  _218
REMARK   84  A    between atoms: _217  and  _220
REMARK   85  A    between atoms: _220  and  _221
REMARK   86  A    between atoms: _226  and  _228
REMARK   87  A    between atoms: _228  and  _229
REMARK   88  A    between atoms: _228  and  _231
REMARK   89  A    between atoms: _231  and  _232
REMARK   90  A    between atoms: _237  and  _239
REMARK   91  A    between atoms: _239  and  _240
REMARK   92  A    between atoms: _239  and  _242
REMARK   93  A    between atoms: _242  and  _243
REMARK   94  A    between atoms: _243  and  _244
REMARK   95  A    between atoms: _246  and  _248
REMARK   96  A    between atoms: _248  and  _249
REMARK   97  A    between atoms: _248  and  _251
REMARK   98  A    between atoms: _251  and  _252
REMARK   99  A    between atoms: _257  and  _258
REMARK  100  A    between atoms: _260  and  _262
REMARK  101  A    between atoms: _262  and  _263
REMARK  102  A    between atoms: _262  and  _265
REMARK  103  A    between atoms: _265  and  _266
REMARK  104  A    between atoms: _269  and  _271
REMARK  105  A    between atoms: _271  and  _272
REMARK  106  A    between atoms: _271  and  _274
REMARK  107  A    between atoms: _274  and  _275
REMARK  108  A    between atoms: _275  and  _496
REMARK  109  A    between atoms: _276  and  _278
REMARK  110  A    between atoms: _278  and  _279
REMARK  111  A    between atoms: _278  and  _281
REMARK  112  A    between atoms: _281  and  _282
REMARK  113  A    between atoms: _285  and  _287
REMARK  114  A    between atoms: _287  and  _288
REMARK  115  A    between atoms: _287  and  _290
REMARK  116  A    between atoms: _290  and  _291
REMARK  117  A    between atoms: _296  and  _297
REMARK  118  A    between atoms: _299  and  _301
REMARK  119  A    between atoms: _301  and  _302
REMARK  120  A    between atoms: _301  and  _304
REMARK  121  A    between atoms: _304  and  _305
REMARK  122  A    between atoms: _310  and  _311
REMARK  123  A    between atoms: _313  and  _315
REMARK  124  A    between atoms: _315  and  _316
REMARK  125  A    between atoms: _315  and  _318
REMARK  126  A    between atoms: _318  and  _319
REMARK  127  A    between atoms: _319  and  _320
REMARK  128  A    between atoms: _323  and  _325
REMARK  129  A    between atoms: _325  and  _326
REMARK  130  A    between atoms: _325  and  _328
REMARK  131  A    between atoms: _328  and  _329
REMARK  132  A    between atoms: _329  and  _330
REMARK  133  A    between atoms: _330  and  _331
REMARK  134  A    between atoms: _331  and  _332
REMARK  135  A    between atoms: _336  and  _338
REMARK  136  A    between atoms: _338  and  _339
REMARK  137  A    between atoms: _338  and  _341
REMARK  138  A    between atoms: _341  and  _342
REMARK  139  A    between atoms: _347  and  _348
REMARK  140  A    between atoms: _350  and  _352
REMARK  141  A    between atoms: _352  and  _353
REMARK  142  A    between atoms: _352  and  _355
REMARK  143  A    between atoms: _355  and  _356
REMARK  144  A    between atoms: _361  and  _363
REMARK  145  A    between atoms: _363  and  _364
REMARK  146  A    between atoms: _363  and  _366
REMARK  147  A    between atoms: _366  and  _367
REMARK  148  A    between atoms: _370  and  _372
REMARK  149  A    between atoms: _372  and  _373
REMARK  150  A    between atoms: _372  and  _375
REMARK  151  A    between atoms: _375  and  _376
REMARK  152  A    between atoms: _381  and  _383
REMARK  153  A    between atoms: _383  and  _384
REMARK  154  A    between atoms: _383  and  _386
REMARK  155  A    between atoms: _386  and  _387
REMARK  156  A    between atoms: _397  and  _399
REMARK  157  A    between atoms: _399  and  _400
REMARK  158  A    between atoms: _399  and  _402
REMARK  159  A    between atoms: _402  and  _403
REMARK  160  A    between atoms: _409  and  _411
REMARK  161  A    between atoms: _411  and  _412
REMARK  162  A    between atoms: _411  and  _414
REMARK  163  A    between atoms: _414  and  _415
REMARK  164  A    between atoms: _418  and  _420
REMARK  165  A    between atoms: _420  and  _421
REMARK  166  A    between atoms: _420  and  _423
REMARK  167  A    between atoms: _423  and  _424
REMARK  168  A    between atoms: _424  and  _425
REMARK  169  A    between atoms: _425  and  _426
REMARK  170  A    between atoms: _435  and  _437
REMARK  171  A    between atoms: _437  and  _438
REMARK  172  A    between atoms: _437  and  _440
REMARK  173  A    between atoms: _440  and  _441
REMARK  174  A    between atoms: _446  and  _448
REMARK  175  A    between atoms: _448  and  _449
REMARK  176  A    between atoms: _448  and  _451
REMARK  177  A    between atoms: _451  and  _452
REMARK  178  A    between atoms: _452  and  _453
REMARK  179  A    between atoms: _453  and  _454
REMARK  180  A    between atoms: _463  and  _465
REMARK  181  A    between atoms: _465  and  _466
REMARK  182  A    between atoms: _469  and  _471
REMARK  183  A    between atoms: _471  and  _472
REMARK  184  A    between atoms: _474  and  _476
REMARK  185  A    between atoms: _476  and  _477
REMARK  186  A    between atoms: _476  and  _479
REMARK  187  A    between atoms: _479  and  _480
REMARK  188  A    between atoms: _490  and  _492
REMARK  189  A    between atoms: _492  and  _493
REMARK  190  A    between atoms: _492  and  _495
REMARK  191  A    between atoms: _495  and  _496
REMARK  192  A    between atoms: _497  and  _499
REMARK  193  A    between atoms: _499  and  _500
REMARK  194  A    between atoms: _503  and  _505
REMARK  195  A    between atoms: _505  and  _506
REMARK  196  A    between atoms: _505  and  _508
REMARK  197  A    between atoms: _508  and  _509
REMARK  198  A    between atoms: _512  and  _514
REMARK  199  A    between atoms: _514  and  _515
REMARK  200  A    between atoms: _514  and  _517
REMARK  201  A    between atoms: _517  and  _518
REMARK  202  A    between atoms: _523  and  _524
REMARK  203  A    between atoms: _526  and  _528
REMARK  204  A    between atoms: _528  and  _529
REMARK  205  A    between atoms: _528  and  _531
REMARK  206  A    between atoms: _531  and  _532
REMARK  207  A    between atoms: _534  and  _536
REMARK  208  A    between atoms: _536  and  _537
REMARK  209  A    between atoms: _536  and  _539
REMARK  210  A    between atoms: _539  and  _540
REMARK  211  A    between atoms: _546  and  _548
REMARK  212  A    between atoms: _548  and  _549
REMARK  213  A    between atoms: _548  and  _551
REMARK  214  A    between atoms: _551  and  _552
REMARK  215  A    between atoms: _555  and  _557
REMARK  216  A    between atoms: _557  and  _558
REMARK  217  A    between atoms: _557  and  _560
REMARK  218  A    between atoms: _560  and  _561
REMARK  219  A    between atoms: _563  and  _565
REMARK  220  A    between atoms: _565  and  _566
REMARK  221  A    between atoms: _565  and  _568
REMARK  222  A    between atoms: _568  and  _569
REMARK  223  A    between atoms: _574  and  _576
REMARK  224  A    between atoms: _576  and  _577
REMARK  225  A    between atoms: _576  and  _579
REMARK  226  A    between atoms: _579  and  _580
REMARK  227  A    between atoms: _585  and  _587
REMARK  228  A    between atoms: _587  and  _588
REMARK  229  A    between atoms: _587  and  _590
REMARK  230  A    between atoms: _590  and  _591
REMARK  231  A    between atoms: _594  and  _596
REMARK  232  A    between atoms: _596  and  _597
REMARK  233  A    between atoms: _600  and  _602
REMARK  234  A    between atoms: _602  and  _603
REMARK  235  A    between atoms: _602  and  _605
REMARK  236  A    between atoms: _605  and  _606
REMARK  237  A    between atoms: _611  and  _612
REMARK  238  A    between atoms: _614  and  _616
REMARK  239  A    between atoms: _616  and  _617
REMARK  240  A    between atoms: _616  and  _619
REMARK  241  A    between atoms: _619  and  _620
REMARK  242  A    between atoms: _625  and  _626
REMARK  243  A    between atoms: _628  and  _630
REMARK  244  A    between atoms: _630  and  _631
REMARK  245  A    between atoms: _630  and  _633
REMARK  246  A    between atoms: _636  and  _638
REMARK  247  A    between atoms: _638  and  _639
REMARK  248  A    between atoms: _638  and  _641
REMARK  249  A    between atoms: _641  and  _642
REMARK  250  A    between atoms: _647  and  _649
REMARK  251  A    between atoms: _649  and  _650
REMARK  252  A    between atoms: _653  and  _655
REMARK  253  A    between atoms: _655  and  _656
REMARK  254  A    between atoms: _655  and  _658
REMARK  255  A    between atoms: _658  and  _659
REMARK  256  A    between atoms: _659  and  _660
REMARK  257  A    between atoms: _660  and  _661
REMARK  258  A    between atoms: _670  and  _672
REMARK  259  A    between atoms: _672  and  _673
REMARK  260  A    between atoms: _672  and  _675
REMARK  261  A    between atoms: _675  and  _676
REMARK  262  A    between atoms: _679  and  _681
REMARK  263  A    between atoms: _681  and  _682
REMARK  264  A    between atoms: _681  and  _684
REMARK  265  A    between atoms: _684  and  _685
REMARK  266  A    between atoms: _688  and  _690
REMARK  267  A    between atoms: _690  and  _691
REMARK  268  A    between atoms: _690  and  _693
REMARK  269  A    between atoms: _693  and  _694
REMARK                            x       y       z     vdW  Elec       q    Type
REMARK                         _______ _______ _______ _____ _____    ______ ____
ROOT
ATOM      1  CG  TYR A   1      -7.637  13.272  22.386  0.00  0.00    -0.020 A 
ATOM      2  CD2 TYR A   1      -8.312  14.453  22.681  0.00  0.00    -0.001 A 
ATOM      3  CE2 TYR A   1      -8.463  15.471  21.732  0.00  0.00    +0.036 A 
ATOM      4  CZ  TYR A   1      -7.927  15.292  20.481  0.00  0.00    +0.134 A 
ATOM      5  CE1 TYR A   1      -7.254  14.143  20.173  0.00  0.00    +0.036 A 
ATOM      6  CD1 TYR A   1      -7.109  13.143  21.135  0.00  0.00    -0.001 A 
ENDROOT
BRANCH   4   7
ATOM      7  OH  TYR A   1      -8.051  16.262  19.491  0.00  0.00    -0.506 OA
ATOM      8  HH  TYR A   1      -7.602  15.949  18.666  0.00  0.00    +0.292 HD
ENDBRANCH   4   7
BRANCH   1   9
ATOM      9  CB  TYR A   1      -7.473  12.182  23.440  0.00  0.00    +0.051 C 
BRANCH   9  10
ATOM     10  CA  TYR A   1      -6.087  12.005  24.081  0.00  0.00    +0.137 C 
BRANCH  10  11
ATOM     11  N   TYR A   1      -5.667  13.153  24.902  0.00  0.00    -0.239 NA
ATOM     12  H   TYR A   1      -4.997  13.850  24.517  0.00  0.00    +0.142 HD
ENDBRANCH  10  11
BRANCH  10  13
ATOM     13  C   TYR A   1      -5.036  11.662  23.024  0.00  0.00    +0.224 C 
ATOM     14  O   TYR A   1      -4.248  12.523  22.626  0.00  0.00    -0.287 OA
ENDBRANCH  10  13
ENDBRANCH   9  10
ENDBRANCH   1   9
TORSDOF 5
REMARK  Name = ../refined-set-2016/1b3f/1b3f_pocket.pdb
REMARK  269 active torsions:
REMARK  status: ('A' for Active; 'I' for Inactive)
REMARK    1  A    between atoms: _1  and  _3
REMARK    2  A    between atoms: _3  and  _4
REMARK    3  A    between atoms: _3  and  _6
REMARK    4  A    between atoms: _6  and  _7
REMARK    5  A    between atoms: _12  and  _14
REMARK    6  A    between atoms: _14  and  _15
REMARK    7  A    between atoms: _17  and  _19
REMARK    8  A    between atoms: _19  and  _20
REMARK    9  A    between atoms: _19  and  _22
REMARK   10  A    between atoms: _22  and  _23
REMARK   11  A    between atoms: _25  and  _27
REMARK   12  A    between atoms: _27  and  _28
REMARK   13  A    between atoms: _27  and  _30
REMARK   14  A    between atoms: _30  and  _31
REMARK   15  A    between atoms: _31  and  _32
REMARK   16  A    between atoms: _37  and  _39
REMARK   17  A    between atoms: _39  and  _40
REMARK   18  A    between atoms: _39  and  _42
REMARK   19  A    between atoms: _42  and  _43
REMARK   20  A    between atoms: _46  and  _48
REMARK   21  A    between atoms: _48  and  _49
REMARK   22  A    between atoms: _48  and  _51
REMARK   23  A    between atoms: _52  and  _53
REMARK   24  A    between atoms: _56  and  _58
REMARK   25  A    between atoms: _58  and  _59
REMARK   26  A    between atoms: _61  and  _63
REMARK   27  A    between atoms: _63  and  _64
REMARK   28  A    between atoms: _63  and  _66
REMARK   29  A    between atoms: _70  and  _71
REMARK   30  A    between atoms: _76  and  _78
REMARK   31  A    between atoms: _78  and  _79
REMARK   32  A    between atoms: _78  and  _81
REMARK   33  A    between atoms: _81  and  _82
REMARK   34  A    between atoms: _82  and  _83
REMARK   35  A    between atoms: _86  and  _88
REMARK   36  A    between atoms: _88  and  _89
REMARK   37  A    between atoms: _88  and  _91
REMARK   38  A    between atoms: _91  and  _92
REMARK   39  A    between atoms: _94  and  _96
REMARK   40  A    between atoms: _96  and  _97
REMARK   41  A    between atoms: _96  and  _99
REMARK   42  A    between atoms: _99  and  _100
REMARK   43  A    between atoms: _105  and  _107
REMARK   44  A    between atoms: _107  and  _108
REMARK   45  A    between atoms: _107  and  _110
REMARK   46  A    between atoms: _110  and  _111
REMARK   47  A    between atoms: _111  and  _112
REMARK   48  A    between atoms: _112  and  _113
REMARK   49  A    between atoms: _123  and  _124
REMARK   50  A    between atoms: _129  and  _131
REMARK   51  A    between atoms: _131  and  _132
REMARK   52  A    between atoms: _131  and  _134
REMARK   53  A    between atoms: _134  and  _135
REMARK   54  A    between atoms: _140  and  _141
REMARK   55  A    between atoms: _143  and  _145
REMARK   56  A    between atoms: _145  and  _146
REMARK   57  A    between atoms: _145  and  _148
REMARK   58  A    between atoms: _148  and  _149
REMARK   59  A    between atoms: _154  and  _155
REMARK   60  A    between atoms: _157  and  _159
REMARK   61  A    between atoms: _159  and  _160
REMARK   62  A    between atoms: _159  and  _162
REMARK   63  A    between atoms: _165  and  _167
REMARK   64  A    between atoms: _167  and  _168
REMARK   65  A    between atoms: _167  and  _170
REMARK   66  A    between atoms: _170  and  _171
REMARK   67  A    between atoms: _177  and  _178
REMARK   68  A    between atoms: _183  and  _185
REMARK   69  A    between atoms: _185  and  _186
REMARK   70  A    between atoms: _185  and  _188
REMARK   71  A    between atoms: _188  and  _189
REMARK   72  A    between atoms: _191  and  _193
REMARK   73  A    between atoms: _193  and  _194
REMARK   74  A    between atoms: _193  and  _196
REMARK   75  A    between atoms: _196  and  _197
REMARK   76  A    between atoms: _197  and  _198
REMARK   77  A    between atoms: _201  and  _203
REMARK   78  A    between atoms: _203  and  _204
REMARK   79  A    between atoms: _203  and  _206
REMARK   80  A    between atoms: _206  and  _207
REMARK   81  A    between atoms: _212  and  _213
REMARK   82  A    between atoms: _215  and  _217
REMARK   83  A    between atoms: _217  and  _218
REMARK   84  A    between atoms: _217  and  _220
REMARK   85  A    between atoms: _220  and  _221
REMARK   86  A    between atoms: _226  and  _228
REMARK   87  A    between atoms: _228  and  _229
REMARK   88  A    between atoms: _228  and  _231
REMARK   89  A    between atoms: _231  and  _232
REMARK   90  A    between atoms: _237  and  _239
REMARK   91  A    between atoms: _239  and  _240
REMARK   92  A    between atoms: _239  and  _242
REMARK   93  A    between atoms: _242  and  _243
REMARK   94  A    between atoms: _243  and  _244
REMARK   95  A    between atoms: _246  and  _248
REMARK   96  A    between atoms: _248  and  _249
REMARK   97  A    between atoms: _248  and  _251
REMARK   98  A    between atoms: _251  and  _252
REMARK   99  A    between atoms: _257  and  _258
REMARK  100  A    between atoms: _260  and  _262
REMARK  101  A    between atoms: _262  and  _263
REMARK  102  A    between atoms: _262  and  _265
REMARK  103  A    between atoms: _265  and  _266
REMARK  104  A    between atoms: _269  and  _271
REMARK  105  A    between atoms: _271  and  _272
REMARK  106  A    between atoms: _271  and  _274
REMARK  107  A    between atoms: _274  and  _275
REMARK  108  A    between atoms: _275  and  _496
REMARK  109  A    between atoms: _276  and  _278
REMARK  110  A    between atoms: _278  and  _279
REMARK  111  A    between atoms: _278  and  _281
REMARK  112  A    between atoms: _281  and  _282
REMARK  113  A    between atoms: _285  and  _287
REMARK  114  A    between atoms: _287  and  _288
REMARK  115  A    between atoms: _287  and  _290
REMARK  116  A    between atoms: _290  and  _291
REMARK  117  A    between atoms: _296  and  _297
REMARK  118  A    between atoms: _299  and  _301
REMARK  119  A    between atoms: _301  and  _302
REMARK  120  A    between atoms: _301  and  _304
REMARK  121  A    between atoms: _304  and  _305
REMARK  122  A    between atoms: _310  and  _311
REMARK  123  A    between atoms: _313  and  _315
REMARK  124  A    between atoms: _315  and  _316
REMARK  125  A    between atoms: _315  and  _318
REMARK  126  A    between atoms: _318  and  _319
REMARK  127  A    between atoms: _319  and  _320
REMARK  128  A    between atoms: _323  and  _325
REMARK  129  A    between atoms: _325  and  _326
REMARK  130  A    between atoms: _325  and  _328
REMARK  131  A    between atoms: _328  and  _329
REMARK  132  A    between atoms: _329  and  _330
REMARK  133  A    between atoms: _330  and  _331
REMARK  134  A    between atoms: _331  and  _332
REMARK  135  A    between atoms: _336  and  _338
REMARK  136  A    between atoms: _338  and  _339
REMARK  137  A    between atoms: _338  and  _341
REMARK  138  A    between atoms: _341  and  _342
REMARK  139  A    between atoms: _347  and  _348
REMARK  140  A    between atoms: _350  and  _352
REMARK  141  A    between atoms: _352  and  _353
REMARK  142  A    between atoms: _352  and  _355
REMARK  143  A    between atoms: _355  and  _356
REMARK  144  A    between atoms: _361  and  _363
REMARK  145  A    between atoms: _363  and  _364
REMARK  146  A    between atoms: _363  and  _366
REMARK  147  A    between atoms: _366  and  _367
REMARK  148  A    between atoms: _370  and  _372
REMARK  149  A    between atoms: _372  and  _373
REMARK  150  A    between atoms: _372  and  _375
REMARK  151  A    between atoms: _375  and  _376
REMARK  152  A    between atoms: _381  and  _383
REMARK  153  A    between atoms: _383  and  _384
REMARK  154  A    between atoms: _383  and  _386
REMARK  155  A    between atoms: _386  and  _387
REMARK  156  A    between atoms: _397  and  _399
REMARK  157  A    between atoms: _399  and  _400
REMARK  158  A    between atoms: _399  and  _402
REMARK  159  A    between atoms: _402  and  _403
REMARK  160  A    between atoms: _409  and  _411
REMARK  161  A    between atoms: _411  and  _412
REMARK  162  A    between atoms: _411  and  _414
REMARK  163  A    between atoms: _414  and  _415
REMARK  164  A    between atoms: _418  and  _420
REMARK  165  A    between atoms: _420  and  _421
REMARK  166  A    between atoms: _420  and  _423
REMARK  167  A    between atoms: _423  and  _424
REMARK  168  A    between atoms: _424  and  _425
REMARK  169  A    between atoms: _425  and  _426
REMARK  170  A    between atoms: _435  and  _437
REMARK  171  A    between atoms: _437  and  _438
REMARK  172  A    between atoms: _437  and  _440
REMARK  173  A    between atoms: _440  and  _441
REMARK  174  A    between atoms: _446  and  _448
REMARK  175  A    between atoms: _448  and  _449
REMARK  176  A    between atoms: _448  and  _451
REMARK  177  A    between atoms: _451  and  _452
REMARK  178  A    between atoms: _452  and  _453
REMARK  179  A    between atoms: _453  and  _454
REMARK  180  A    between atoms: _463  and  _465
REMARK  181  A    between atoms: _465  and  _466
REMARK  182  A    between atoms: _469  and  _471
REMARK  183  A    between atoms: _471  and  _472
REMARK  184  A    between atoms: _474  and  _476
REMARK  185  A    between atoms: _476  and  _477
REMARK  186  A    between atoms: _476  and  _479
REMARK  187  A    between atoms: _479  and  _480
REMARK  188  A    between atoms: _490  and  _492
REMARK  189  A    between atoms: _492  and  _493
REMARK  190  A    between atoms: _492  and  _495
REMARK  191  A    between atoms: _495  and  _496
REMARK  192  A    between atoms: _497  and  _499
REMARK  193  A    between atoms: _499  and  _500
REMARK  194  A    between atoms: _503  and  _505
REMARK  195  A    between atoms: _505  and  _506
REMARK  196  A    between atoms: _505  and  _508
REMARK  197  A    between atoms: _508  and  _509
REMARK  198  A    between atoms: _512  and  _514
REMARK  199  A    between atoms: _514  and  _515
REMARK  200  A    between atoms: _514  and  _517
REMARK  201  A    between atoms: _517  and  _518
REMARK  202  A    between atoms: _523  and  _524
REMARK  203  A    between atoms: _526  and  _528
REMARK  204  A    between atoms: _528  and  _529
REMARK  205  A    between atoms: _528  and  _531
REMARK  206  A    between atoms: _531  and  _532
REMARK  207  A    between atoms: _534  and  _536
REMARK  208  A    between atoms: _536  and  _537
REMARK  209  A    between atoms: _536  and  _539
REMARK  210  A    between atoms: _539  and  _540
REMARK  211  A    between atoms: _546  and  _548
REMARK  212  A    between atoms: _548  and  _549
REMARK  213  A    between atoms: _548  and  _551
REMARK  214  A    between atoms: _551  and  _552
REMARK  215  A    between atoms: _555  and  _557
REMARK  216  A    between atoms: _557  and  _558
REMARK  217  A    between atoms: _557  and  _560
REMARK  218  A    between atoms: _560  and  _561
REMARK  219  A    between atoms: _563  and  _565
REMARK  220  A    between atoms: _565  and  _566
REMARK  221  A    between atoms: _565  and  _568
REMARK  222  A    between atoms: _568  and  _569
REMARK  223  A    between atoms: _574  and  _576
REMARK  224  A    between atoms: _576  and  _577
REMARK  225  A    between atoms: _576  and  _579
REMARK  226  A    between atoms: _579  and  _580
REMARK  227  A    between atoms: _585  and  _587
REMARK  228  A    between atoms: _587  and  _588
REMARK  229  A    between atoms: _587  and  _590
REMARK  230  A    between atoms: _590  and  _591
REMARK  231  A    between atoms: _594  and  _596
REMARK  232  A    between atoms: _596  and  _597
REMARK  233  A    between atoms: _600  and  _602
REMARK  234  A    between atoms: _602  and  _603
REMARK  235  A    between atoms: _602  and  _605
REMARK  236  A    between atoms: _605  and  _606
REMARK  237  A    between atoms: _611  and  _612
REMARK  238  A    between atoms: _614  and  _616
REMARK  239  A    between atoms: _616  and  _617
REMARK  240  A    between atoms: _616  and  _619
REMARK  241  A    between atoms: _619  and  _620
REMARK  242  A    between atoms: _625  and  _626
REMARK  243  A    between atoms: _628  and  _630
REMARK  244  A    between atoms: _630  and  _631
REMARK  245  A    between atoms: _630  and  _633
REMARK  246  A    between atoms: _636  and  _638
REMARK  247  A    between atoms: _638  and  _639
REMARK  248  A    between atoms: _638  and  _641
REMARK  249  A    between atoms: _641  and  _642
REMARK  250  A    between atoms: _647  and  _649
REMARK  251  A    between atoms: _649  and  _650
REMARK  252  A    between atoms: _653  and  _655
REMARK  253  A    between atoms: _655  and  _656
REMARK  254  A    between atoms: _655  and  _658
REMARK  255  A    between atoms: _658  and  _659
REMARK  256  A    between atoms: _659  and  _660
REMARK  257  A    between atoms: _660  and  _661
REMARK  258  A    between atoms: _670  and  _672
REMARK  259  A    between atoms: _672  and  _673
REMARK  260  A    between atoms: _672  and  _675
REMARK  261  A    between atoms: _675  and  _676
REMARK  262  A    between atoms: _679  and  _681
REMARK  263  A    between atoms: _681  and  _682
REMARK  264  A    between atoms: _681  and  _684
REMARK  265  A    between atoms: _684  and  _685
REMARK  266  A    between atoms: _688  and  _690
REMARK  267  A    between atoms: _690  and  _691
REMARK  268  A    between atoms: _690  and  _693
REMARK  269  A    between atoms: _693  and  _694
REMARK                            x       y       z     vdW  Elec       q    Type
REMARK                         _______ _______ _______ _____ _____    ______ ____
ROOT
ATOM      1  CA  ASN A   3      -6.143  10.803  11.743  0.00  0.00    +0.158 C 
ENDROOT
BRANCH   1   4
ATOM      2  C   VAL A   2      -6.645  10.459  14.093  0.00  0.00    +0.241 C 
ATOM      3  O   VAL A   2      -6.851  11.682  14.243  0.00  0.00    -0.273 OA
ATOM      4  N   ASN A   3      -6.299   9.956  12.928  0.00  0.00    -0.297 N 
ATOM      5  H   ASN A   3      -6.132   8.933  12.846  0.00  0.00    +0.150 HD
BRANCH   2   6
ATOM      6  CA  VAL A   2      -6.856   9.468  15.238  0.00  0.00    +0.148 C 
BRANCH   6   9
ATOM      7  C   TYR A   1      -5.518  10.154  17.126  0.00  0.00    +0.239 C 
ATOM      8  O   TYR A   1      -4.720   9.267  17.024  0.00  0.00    -0.274 OA
ATOM      9  N   VAL A   2      -6.643  10.282  16.411  0.00  0.00    -0.297 N 
ATOM     10  H   VAL A   2      -7.366  10.971  16.702  0.00  0.00    +0.150 HD
BRANCH   7  11
ATOM     11  CA  TYR A   1      -5.301  11.366  18.048  0.00  0.00    +0.149 C 
BRANCH  11  12
ATOM     12  N   TYR A   1      -4.484  11.008  19.173  0.00  0.00    -0.238 NA
ATOM     13  H   TYR A   1      -3.480  11.277  19.201  0.00  0.00    +0.142 HD
ENDBRANCH  11  12
BRANCH  11  14
ATOM     14  CB  TYR A   1      -4.587  12.301  17.064  0.00  0.00    +0.053 C 
BRANCH  14  15
ATOM     15  CG  TYR A   1      -4.307  13.721  17.357  0.00  0.00    -0.020 A 
ATOM     16  CD2 TYR A   1      -3.458  14.120  18.379  0.00  0.00    -0.001 A 
ATOM     17  CE2 TYR A   1      -3.158  15.449  18.588  0.00  0.00    +0.036 A 
ATOM     18  CZ  TYR A   1      -3.742  16.398  17.763  0.00  0.00    +0.134 A 
ATOM     19  CE1 TYR A   1      -4.609  16.047  16.763  0.00  0.00    +0.036 A 
ATOM     20  CD1 TYR A   1      -4.853  14.720  16.547  0.00  0.00    -0.001 A 
BRANCH  18  21
ATOM     21  OH  TYR A   1      -3.440  17.716  17.989  0.00  0.00    -0.506 OA
ATOM     22  HH  TYR A   1      -3.031  18.104  17.175  0.00  0.00    +0.292 HD
ENDBRANCH  18  21
ENDBRANCH  14  15
ENDBRANCH  11  14
ENDBRANCH   7  11
ENDBRANCH   6   9
BRANCH   6  23
ATOM     23  CB  VAL A   2      -8.199   8.745  15.079  0.00  0.00    +0.027 C 
ATOM     24  CG2 VAL A   2      -8.246   7.617  16.121  0.00  0.00    +0.002 C 
ATOM     25  CG1 VAL A   2      -9.357   9.683  15.231  0.00  0.00    +0.002 C 
ENDBRANCH   6  23
ENDBRANCH   2   6
ENDBRANCH   1   4
BRANCH   1  26
ATOM     26  C   ASN A   3      -7.458  10.831  10.976  0.00  0.00    +0.241 C 
ATOM     27  N   ALA A   4      -8.332  11.791  11.268  0.00  0.00    -0.297 N 
ATOM     28  H   ALA A   4      -8.069  12.505  11.977  0.00  0.00    +0.150 HD
ATOM     29  O   ASN A   3      -7.664   9.962  10.133  0.00  0.00    -0.273 OA
BRANCH  27  30
ATOM     30  CA  ALA A   4      -9.639  11.884  10.637  0.00  0.00    +0.149 C 
ATOM     31  CB  ALA A   4     -10.682  12.150  11.729  0.00  0.00    +0.031 C 
BRANCH  30  32
ATOM     32  C   ALA A   4      -9.699  13.038   9.640  0.00  0.00    +0.241 C 
ATOM     33  O   ALA A   4      -9.344  14.167  10.020  0.00  0.00    -0.273 OA
ATOM     34  N   ARG A   5     -10.049  12.769   8.393  0.00  0.00    -0.298 N 
ATOM     35  H   ARG A   5     -10.286  11.797   8.110  0.00  0.00    +0.150 HD
BRANCH  34  36
ATOM     36  CA  ARG A   5     -10.099  13.864   7.411  0.00  0.00    +0.137 C 
BRANCH  36  37
ATOM     37  C   ARG A   5     -11.068  13.441   6.307  0.00  0.00    +0.227 C 
ATOM     38  O   ARG A   5     -11.335  12.232   6.188  0.00  0.00    -0.286 OA
ENDBRANCH  36  37
BRANCH  36  39
ATOM     39  CB  ARG A   5      -8.731  14.124   6.750  0.00  0.00    +0.031 C 
BRANCH  39  40
ATOM     40  CG  ARG A   5      -8.110  12.850   6.191  0.00  0.00    +0.045 C 
BRANCH  40  41
ATOM     41  CD  ARG A   5      -7.197  13.030   5.009  0.00  0.00    +0.174 C 
BRANCH  41  42
ATOM     42  NE  ARG A   5      -6.288  14.130   5.018  0.00  0.00    -0.265 N 
ATOM     43  CZ  ARG A   5      -5.067  14.343   5.474  0.00  0.00    +0.342 C 
ATOM     44  NH2 ARG A   5      -4.373  13.419   6.095  0.00  0.00    -0.292 N 
ATOM     45 HH21 ARG A   5      -3.414  13.631   6.438  0.00  0.00    +0.255 HD
ATOM     46 HH22 ARG A   5      -4.782  12.474   6.245  0.00  0.00    +0.255 HD
ATOM     47  NH1 ARG A   5      -4.571  15.569   5.288  0.00  0.00    -0.292 N 
ATOM     48 HH11 ARG A   5      -3.614  15.799   5.625  0.00  0.00    +0.255 HD
ATOM     49 HH12 ARG A   5      -5.141  16.293   4.807  0.00  0.00    +0.255 HD
ATOM     50  HE  ARG A   5      -6.684  14.970   4.551  0.00  0.00    +0.259 HD
ENDBRANCH  41  42
ENDBRANCH  40  41
ENDBRANCH  39  40
ENDBRANCH  36  39
ENDBRANCH  34  36
ENDBRANCH  30  32
ENDBRANCH  27  30
ENDBRANCH   1  26
BRANCH   1  51
ATOM     51  CB  ASN A   3      -4.996  10.221  10.919  0.00  0.00    +0.114 C 
BRANCH  51  52
ATOM     52  CG  ASN A   3      -4.719  11.075   9.689  0.00  0.00    +0.222 C 
ATOM     53  OD1 ASN A   3      -5.374  12.092   9.471  0.00  0.00    -0.275 OA
ATOM     54  ND2 ASN A   3      -3.749  10.712   8.884  0.00  0.00    -0.329 N 
ATOM     55 HD21 ASN A   3      -3.204   9.849   9.082  0.00  0.00    +0.145 HD
ATOM     56 HD22 ASN A   3      -3.525  11.288   8.047  0.00  0.00    +0.145 HD
ENDBRANCH  51  52
ENDBRANCH   1  51
TORSDOF 20
REMARK  Name = ../refined-set-2016/1b3f/1b3f_pocket.pdb
REMARK  269 active torsions:
REMARK  status: ('A' for Active; 'I' for Inactive)
REMARK    1  A    between atoms: _1  and  _3
REMARK    2  A    between atoms: _3  and  _4
REMARK    3  A    between atoms: _3  and  _6
REMARK    4  A    between atoms: _6  and  _7
REMARK    5  A    between atoms: _12  and  _14
REMARK    6  A    between atoms: _14  and  _15
REMARK    7  A    between atoms: _17  and  _19
REMARK    8  A    between atoms: _19  and  _20
REMARK    9  A    between atoms: _19  and  _22
REMARK   10  A    between atoms: _22  and  _23
REMARK   11  A    between atoms: _25  and  _27
REMARK   12  A    between atoms: _27  and  _28
REMARK   13  A    between atoms: _27  and  _30
REMARK   14  A    between atoms: _30  and  _31
REMARK   15  A    between atoms: _31  and  _32
REMARK   16  A    between atoms: _37  and  _39
REMARK   17  A    between atoms: _39  and  _40
REMARK   18  A    between atoms: _39  and  _42
REMARK   19  A    between atoms: _42  and  _43
REMARK   20  A    between atoms: _46  and  _48
REMARK   21  A    between atoms: _48  and  _49
REMARK   22  A    between atoms: _48  and  _51
REMARK   23  A    between atoms: _52  and  _53
REMARK   24  A    between atoms: _56  and  _58
REMARK   25  A    between atoms: _58  and  _59
REMARK   26  A    between atoms: _61  and  _63
REMARK   27  A    between atoms: _63  and  _64
REMARK   28  A    between atoms: _63  and  _66
REMARK   29  A    between atoms: _70  and  _71
REMARK   30  A    between atoms: _76  and  _78
REMARK   31  A    between atoms: _78  and  _79
REMARK   32  A    between atoms: _78  and  _81
REMARK   33  A    between atoms: _81  and  _82
REMARK   34  A    between atoms: _82  and  _83
REMARK   35  A    between atoms: _86  and  _88
REMARK   36  A    between atoms: _88  and  _89
REMARK   37  A    between atoms: _88  and  _91
REMARK   38  A    between atoms: _91  and  _92
REMARK   39  A    between atoms: _94  and  _96
REMARK   40  A    between atoms: _96  and  _97
REMARK   41  A    between atoms: _96  and  _99
REMARK   42  A    between atoms: _99  and  _100
REMARK   43  A    between atoms: _105  and  _107
REMARK   44  A    between atoms: _107  and  _108
REMARK   45  A    between atoms: _107  and  _110
REMARK   46  A    between atoms: _110  and  _111
REMARK   47  A    between atoms: _111  and  _112
REMARK   48  A    between atoms: _112  and  _113
REMARK   49  A    between atoms: _123  and  _124
REMARK   50  A    between atoms: _129  and  _131
REMARK   51  A    between atoms: _131  and  _132
REMARK   52  A    between atoms: _131  and  _134
REMARK   53  A    between atoms: _134  and  _135
REMARK   54  A    between atoms: _140  and  _141
REMARK   55  A    between atoms: _143  and  _145
REMARK   56  A    between atoms: _145  and  _146
REMARK   57  A    between atoms: _145  and  _148
REMARK   58  A    between atoms: _148  and  _149
REMARK   59  A    between atoms: _154  and  _155
REMARK   60  A    between atoms: _157  and  _159
REMARK   61  A    between atoms: _159  and  _160
REMARK   62  A    between atoms: _159  and  _162
REMARK   63  A    between atoms: _165  and  _167
REMARK   64  A    between atoms: _167  and  _168
REMARK   65  A    between atoms: _167  and  _170
REMARK   66  A    between atoms: _170  and  _171
REMARK   67  A    between atoms: _177  and  _178
REMARK   68  A    between atoms: _183  and  _185
REMARK   69  A    between atoms: _185  and  _186
REMARK   70  A    between atoms: _185  and  _188
REMARK   71  A    between atoms: _188  and  _189
REMARK   72  A    between atoms: _191  and  _193
REMARK   73  A    between atoms: _193  and  _194
REMARK   74  A    between atoms: _193  and  _196
REMARK   75  A    between atoms: _196  and  _197
REMARK   76  A    between atoms: _197  and  _198
REMARK   77  A    between atoms: _201  and  _203
REMARK   78  A    between atoms: _203  and  _204
REMARK   79  A    between atoms: _203  and  _206
REMARK   80  A    between atoms: _206  and  _207
REMARK   81  A    between atoms: _212  and  _213
REMARK   82  A    between atoms: _215  and  _217
REMARK   83  A    between atoms: _217  and  _218
REMARK   84  A    between atoms: _217  and  _220
REMARK   85  A    between atoms: _220  and  _221
REMARK   86  A    between atoms: _226  and  _228
REMARK   87  A    between atoms: _228  and  _229
REMARK   88  A    between atoms: _228  and  _231
REMARK   89  A    between atoms: _231  and  _232
REMARK   90  A    between atoms: _237  and  _239
REMARK   91  A    between atoms: _239  and  _240
REMARK   92  A    between atoms: _239  and  _242
REMARK   93  A    between atoms: _242  and  _243
REMARK   94  A    between atoms: _243  and  _244
REMARK   95  A    between atoms: _246  and  _248
REMARK   96  A    between atoms: _248  and  _249
REMARK   97  A    between atoms: _248  and  _251
REMARK   98  A    between atoms: _251  and  _252
REMARK   99  A    between atoms: _257  and  _258
REMARK  100  A    between atoms: _260  and  _262
REMARK  101  A    between atoms: _262  and  _263
REMARK  102  A    between atoms: _262  and  _265
REMARK  103  A    between atoms: _265  and  _266
REMARK  104  A    between atoms: _269  and  _271
REMARK  105  A    between atoms: _271  and  _272
REMARK  106  A    between atoms: _271  and  _274
REMARK  107  A    between atoms: _274  and  _275
REMARK  108  A    between atoms: _275  and  _496
REMARK  109  A    between atoms: _276  and  _278
REMARK  110  A    between atoms: _278  and  _279
REMARK  111  A    between atoms: _278  and  _281
REMARK  112  A    between atoms: _281  and  _282
REMARK  113  A    between atoms: _285  and  _287
REMARK  114  A    between atoms: _287  and  _288
REMARK  115  A    between atoms: _287  and  _290
REMARK  116  A    between atoms: _290  and  _291
REMARK  117  A    between atoms: _296  and  _297
REMARK  118  A    between atoms: _299  and  _301
REMARK  119  A    between atoms: _301  and  _302
REMARK  120  A    between atoms: _301  and  _304
REMARK  121  A    between atoms: _304  and  _305
REMARK  122  A    between atoms: _310  and  _311
REMARK  123  A    between atoms: _313  and  _315
REMARK  124  A    between atoms: _315  and  _316
REMARK  125  A    between atoms: _315  and  _318
REMARK  126  A    between atoms: _318  and  _319
REMARK  127  A    between atoms: _319  and  _320
REMARK  128  A    between atoms: _323  and  _325
REMARK  129  A    between atoms: _325  and  _326
REMARK  130  A    between atoms: _325  and  _328
REMARK  131  A    between atoms: _328  and  _329
REMARK  132  A    between atoms: _329  and  _330
REMARK  133  A    between atoms: _330  and  _331
REMARK  134  A    between atoms: _331  and  _332
REMARK  135  A    between atoms: _336  and  _338
REMARK  136  A    between atoms: _338  and  _339
REMARK  137  A    between atoms: _338  and  _341
REMARK  138  A    between atoms: _341  and  _342
REMARK  139  A    between atoms: _347  and  _348
REMARK  140  A    between atoms: _350  and  _352
REMARK  141  A    between atoms: _352  and  _353
REMARK  142  A    between atoms: _352  and  _355
REMARK  143  A    between atoms: _355  and  _356
REMARK  144  A    between atoms: _361  and  _363
REMARK  145  A    between atoms: _363  and  _364
REMARK  146  A    between atoms: _363  and  _366
REMARK  147  A    between atoms: _366  and  _367
REMARK  148  A    between atoms: _370  and  _372
REMARK  149  A    between atoms: _372  and  _373
REMARK  150  A    between atoms: _372  and  _375
REMARK  151  A    between atoms: _375  and  _376
REMARK  152  A    between atoms: _381  and  _383
REMARK  153  A    between atoms: _383  and  _384
REMARK  154  A    between atoms: _383  and  _386
REMARK  155  A    between atoms: _386  and  _387
REMARK  156  A    between atoms: _397  and  _399
REMARK  157  A    between atoms: _399  and  _400
REMARK  158  A    between atoms: _399  and  _402
REMARK  159  A    between atoms: _402  and  _403
REMARK  160  A    between atoms: _409  and  _411
REMARK  161  A    between atoms: _411  and  _412
REMARK  162  A    between atoms: _411  and  _414
REMARK  163  A    between atoms: _414  and  _415
REMARK  164  A    between atoms: _418  and  _420
REMARK  165  A    between atoms: _420  and  _421
REMARK  166  A    between atoms: _420  and  _423
REMARK  167  A    between atoms: _423  and  _424
REMARK  168  A    between atoms: _424  and  _425
REMARK  169  A    between atoms: _425  and  _426
REMARK  170  A    between atoms: _435  and  _437
REMARK  171  A    between atoms: _437  and  _438
REMARK  172  A    between atoms: _437  and  _440
REMARK  173  A    between atoms: _440  and  _441
REMARK  174  A    between atoms: _446  and  _448
REMARK  175  A    between atoms: _448  and  _449
REMARK  176  A    between atoms: _448  and  _451
REMARK  177  A    between atoms: _451  and  _452
REMARK  178  A    between atoms: _452  and  _453
REMARK  179  A    between atoms: _453  and  _454
REMARK  180  A    between atoms: _463  and  _465
REMARK  181  A    between atoms: _465  and  _466
REMARK  182  A    between atoms: _469  and  _471
REMARK  183  A    between atoms: _471  and  _472
REMARK  184  A    between atoms: _474  and  _476
REMARK  185  A    between atoms: _476  and  _477
REMARK  186  A    between atoms: _476  and  _479
REMARK  187  A    between atoms: _479  and  _480
REMARK  188  A    between atoms: _490  and  _492
REMARK  189  A    between atoms: _492  and  _493
REMARK  190  A    between atoms: _492  and  _495
REMARK  191  A    between atoms: _495  and  _496
REMARK  192  A    between atoms: _497  and  _499
REMARK  193  A    between atoms: _499  and  _500
REMARK  194  A    between atoms: _503  and  _505
REMARK  195  A    between atoms: _505  and  _506
REMARK  196  A    between atoms: _505  and  _508
REMARK  197  A    between atoms: _508  and  _509
REMARK  198  A    between atoms: _512  and  _514
REMARK  199  A    between atoms: _514  and  _515
REMARK  200  A    between atoms: _514  and  _517
REMARK  201  A    between atoms: _517  and  _518
REMARK  202  A    between atoms: _523  and  _524
REMARK  203  A    between atoms: _526  and  _528
REMARK  204  A    between atoms: _528  and  _529
REMARK  205  A    between atoms: _528  and  _531
REMARK  206  A    between atoms: _531  and  _532
REMARK  207  A    between atoms: _534  and  _536
REMARK  208  A    between atoms: _536  and  _537
REMARK  209  A    between atoms: _536  and  _539
REMARK  210  A    between atoms: _539  and  _540
REMARK  211  A    between atoms: _546  and  _548
REMARK  212  A    between atoms: _548  and  _549
REMARK  213  A    between atoms: _548  and  _551
REMARK  214  A    between atoms: _551  and  _552
REMARK  215  A    between atoms: _555  and  _557
REMARK  216  A    between atoms: _557  and  _558
REMARK  217  A    between atoms: _557  and  _560
REMARK  218  A    between atoms: _560  and  _561
REMARK  219  A    between atoms: _563  and  _565
REMARK  220  A    between atoms: _565  and  _566
REMARK  221  A    between atoms: _565  and  _568
REMARK  222  A    between atoms: _568  and  _569
REMARK  223  A    between atoms: _574  and  _576
REMARK  224  A    between atoms: _576  and  _577
REMARK  225  A    between atoms: _576  and  _579
REMARK  226  A    between atoms: _579  and  _580
REMARK  227  A    between atoms: _585  and  _587
REMARK  228  A    between atoms: _587  and  _588
REMARK  229  A    between atoms: _587  and  _590
REMARK  230  A    between atoms: _590  and  _591
REMARK  231  A    between atoms: _594  and  _596
REMARK  232  A    between atoms: _596  and  _597
REMARK  233  A    between atoms: _600  and  _602
REMARK  234  A    between atoms: _602  and  _603
REMARK  235  A    between atoms: _602  and  _605
REMARK  236  A    between atoms: _605  and  _606
REMARK  237  A    between atoms: _611  and  _612
REMARK  238  A    between atoms: _614  and  _616
REMARK  239  A    between atoms: _616  and  _617
REMARK  240  A    between atoms: _616  and  _619
REMARK  241  A    between atoms: _619  and  _620
REMARK  242  A    between atoms: _625  and  _626
REMARK  243  A    between atoms: _628  and  _630
REMARK  244  A    between atoms: _630  and  _631
REMARK  245  A    between atoms: _630  and  _633
REMARK  246  A    between atoms: _636  and  _638
REMARK  247  A    between atoms: _638  and  _639
REMARK  248  A    between atoms: _638  and  _641
REMARK  249  A    between atoms: _641  and  _642
REMARK  250  A    between atoms: _647  and  _649
REMARK  251  A    between atoms: _649  and  _650
REMARK  252  A    between atoms: _653  and  _655
REMARK  253  A    between atoms: _655  and  _656
REMARK  254  A    between atoms: _655  and  _658
REMARK  255  A    between atoms: _658  and  _659
REMARK  256  A    between atoms: _659  and  _660
REMARK  257  A    between atoms: _660  and  _661
REMARK  258  A    between atoms: _670  and  _672
REMARK  259  A    between atoms: _672  and  _673
REMARK  260  A    between atoms: _672  and  _675
REMARK  261  A    between atoms: _675  and  _676
REMARK  262  A    between atoms: _679  and  _681
REMARK  263  A    between atoms: _681  and  _682
REMARK  264  A    between atoms: _681  and  _684
REMARK  265  A    between atoms: _684  and  _685
REMARK  266  A    between atoms: _688  and  _690
REMARK  267  A    between atoms: _690  and  _691
REMARK  268  A    between atoms: _690  and  _693
REMARK  269  A    between atoms: _693  and  _694
REMARK                            x       y       z     vdW  Elec       q    Type
REMARK                         _______ _______ _______ _____ _____    ______ ____
ROOT
ATOM      1  CA  ASP A   2       0.757  10.754   7.686  0.00  0.00    +0.160 C 
ENDROOT
BRANCH   1   4
ATOM      2  C   LEU A   1       2.285  10.396   9.589  0.00  0.00    +0.238 C 
ATOM      3  O   LEU A   1       2.545  11.611   9.658  0.00  0.00    -0.274 OA
ATOM      4  N   ASP A   2       1.429   9.915   8.679  0.00  0.00    -0.297 N 
ATOM      5  H   ASP A   2       1.232   8.894   8.678  0.00  0.00    +0.150 HD
BRANCH   2   6
ATOM      6  CA  LEU A   1       2.989   9.417  10.537  0.00  0.00    +0.145 C 
BRANCH   6   7
ATOM      7  N   LEU A   1       2.391   8.096  10.486  0.00  0.00    -0.238 NA
ATOM      8  H   LEU A   1       2.738   7.410   9.786  0.00  0.00    +0.142 HD
ENDBRANCH   6   7
BRANCH   6   9
ATOM      9  CB  LEU A   1       4.490   9.393  10.222  0.00  0.00    +0.026 C 
BRANCH   9  10
ATOM     10  CG  LEU A   1       5.496   9.039  11.333  0.00  0.00    +0.002 C 
ATOM     11  CD2 LEU A   1       4.982   8.085  12.353  0.00  0.00    +0.000 C 
ATOM     12  CD1 LEU A   1       6.778   8.457  10.693  0.00  0.00    +0.000 C 
ENDBRANCH   9  10
ENDBRANCH   6   9
ENDBRANCH   2   6
ENDBRANCH   1   4
BRANCH   1  13
ATOM     13  C   ASP A   2       1.731  11.596   6.859  0.00  0.00    +0.241 C 
ATOM     14  O   ASP A   2       1.494  12.785   6.547  0.00  0.00    -0.273 OA
ATOM     15  N   ASN A   3       2.820  10.971   6.401  0.00  0.00    -0.298 N 
ATOM     16  H   ASN A   3       2.972   9.972   6.647  0.00  0.00    +0.150 HD
BRANCH  15  17
ATOM     17  CA  ASN A   3       3.817  11.667   5.551  0.00  0.00    +0.146 C 
BRANCH  17  18
ATOM     18  C   ASN A   3       3.353  11.601   4.096  0.00  0.00    +0.227 C 
ATOM     19  O   ASN A   3       3.941  10.863   3.310  0.00  0.00    -0.286 OA
ENDBRANCH  17  18
BRANCH  17  20
ATOM     20  CB  ASN A   3       5.182  10.975   5.710  0.00  0.00    +0.112 C 
BRANCH  20  21
ATOM     21  CG  ASN A   3       5.908  11.402   6.961  0.00  0.00    +0.222 C 
ATOM     22  ND2 ASN A   3       6.636  10.479   7.611  0.00  0.00    -0.329 N 
ATOM     23 HD21 ASN A   3       7.154  10.739   8.475  0.00  0.00    +0.145 HD
ATOM     24 HD22 ASN A   3       6.682   9.505   7.251  0.00  0.00    +0.145 HD
ATOM     25  OD1 ASN A   3       5.832  12.567   7.361  0.00  0.00    -0.275 OA
ENDBRANCH  20  21
ENDBRANCH  17  20
ENDBRANCH  15  17
ENDBRANCH   1  13
BRANCH   1  26
ATOM     26  CB  ASP A   2      -0.360  11.605   8.272  0.00  0.00    +0.143 C 
BRANCH  26  27
ATOM     27  CG  ASP A   2      -1.430  11.958   7.270  0.00  0.00    +0.367 C 
ATOM     28  OD2 ASP A   2      -1.954  13.070   7.308  0.00  0.00    -0.246 OA
ATOM     29  OD1 ASP A   2      -1.799  11.162   6.396  0.00  0.00    -0.246 OA
ENDBRANCH  26  27
ENDBRANCH   1  26
TORSDOF 12
REMARK  Name = ../refined-set-2016/1b3f/1b3f_pocket.pdb
REMARK  269 active torsions:
REMARK  status: ('A' for Active; 'I' for Inactive)
REMARK    1  A    between atoms: _1  and  _3
REMARK    2  A    between atoms: _3  and  _4
REMARK    3  A    between atoms: _3  and  _6
REMARK    4  A    between atoms: _6  and  _7
REMARK    5  A    between atoms: _12  and  _14
REMARK    6  A    between atoms: _14  and  _15
REMARK    7  A    between atoms: _17  and  _19
REMARK    8  A    between atoms: _19  and  _20
REMARK    9  A    between atoms: _19  and  _22
REMARK   10  A    between atoms: _22  and  _23
REMARK   11  A    between atoms: _25  and  _27
REMARK   12  A    between atoms: _27  and  _28
REMARK   13  A    between atoms: _27  and  _30
REMARK   14  A    between atoms: _30  and  _31
REMARK   15  A    between atoms: _31  and  _32
REMARK   16  A    between atoms: _37  and  _39
REMARK   17  A    between atoms: _39  and  _40
REMARK   18  A    between atoms: _39  and  _42
REMARK   19  A    between atoms: _42  and  _43
REMARK   20  A    between atoms: _46  and  _48
REMARK   21  A    between atoms: _48  and  _49
REMARK   22  A    between atoms: _48  and  _51
REMARK   23  A    between atoms: _52  and  _53
REMARK   24  A    between atoms: _56  and  _58
REMARK   25  A    between atoms: _58  and  _59
REMARK   26  A    between atoms: _61  and  _63
REMARK   27  A    between atoms: _63  and  _64
REMARK   28  A    between atoms: _63  and  _66
REMARK   29  A    between atoms: _70  and  _71
REMARK   30  A    between atoms: _76  and  _78
REMARK   31  A    between atoms: _78  and  _79
REMARK   32  A    between atoms: _78  and  _81
REMARK   33  A    between atoms: _81  and  _82
REMARK   34  A    between atoms: _82  and  _83
REMARK   35  A    between atoms: _86  and  _88
REMARK   36  A    between atoms: _88  and  _89
REMARK   37  A    between atoms: _88  and  _91
REMARK   38  A    between atoms: _91  and  _92
REMARK   39  A    between atoms: _94  and  _96
REMARK   40  A    between atoms: _96  and  _97
REMARK   41  A    between atoms: _96  and  _99
REMARK   42  A    between atoms: _99  and  _100
REMARK   43  A    between atoms: _105  and  _107
REMARK   44  A    between atoms: _107  and  _108
REMARK   45  A    between atoms: _107  and  _110
REMARK   46  A    between atoms: _110  and  _111
REMARK   47  A    between atoms: _111  and  _112
REMARK   48  A    between atoms: _112  and  _113
REMARK   49  A    between atoms: _123  and  _124
REMARK   50  A    between atoms: _129  and  _131
REMARK   51  A    between atoms: _131  and  _132
REMARK   52  A    between atoms: _131  and  _134
REMARK   53  A    between atoms: _134  and  _135
REMARK   54  A    between atoms: _140  and  _141
REMARK   55  A    between atoms: _143  and  _145
REMARK   56  A    between atoms: _145  and  _146
REMARK   57  A    between atoms: _145  and  _148
REMARK   58  A    between atoms: _148  and  _149
REMARK   59  A    between atoms: _154  and  _155
REMARK   60  A    between atoms: _157  and  _159
REMARK   61  A    between atoms: _159  and  _160
REMARK   62  A    between atoms: _159  and  _162
REMARK   63  A    between atoms: _165  and  _167
REMARK   64  A    between atoms: _167  and  _168
REMARK   65  A    between atoms: _167  and  _170
REMARK   66  A    between atoms: _170  and  _171
REMARK   67  A    between atoms: _177  and  _178
REMARK   68  A    between atoms: _183  and  _185
REMARK   69  A    between atoms: _185  and  _186
REMARK   70  A    between atoms: _185  and  _188
REMARK   71  A    between atoms: _188  and  _189
REMARK   72  A    between atoms: _191  and  _193
REMARK   73  A    between atoms: _193  and  _194
REMARK   74  A    between atoms: _193  and  _196
REMARK   75  A    between atoms: _196  and  _197
REMARK   76  A    between atoms: _197  and  _198
REMARK   77  A    between atoms: _201  and  _203
REMARK   78  A    between atoms: _203  and  _204
REMARK   79  A    between atoms: _203  and  _206
REMARK   80  A    between atoms: _206  and  _207
REMARK   81  A    between atoms: _212  and  _213
REMARK   82  A    between atoms: _215  and  _217
REMARK   83  A    between atoms: _217  and  _218
REMARK   84  A    between atoms: _217  and  _220
REMARK   85  A    between atoms: _220  and  _221
REMARK   86  A    between atoms: _226  and  _228
REMARK   87  A    between atoms: _228  and  _229
REMARK   88  A    between atoms: _228  and  _231
REMARK   89  A    between atoms: _231  and  _232
REMARK   90  A    between atoms: _237  and  _239
REMARK   91  A    between atoms: _239  and  _240
REMARK   92  A    between atoms: _239  and  _242
REMARK   93  A    between atoms: _242  and  _243
REMARK   94  A    between atoms: _243  and  _244
REMARK   95  A    between atoms: _246  and  _248
REMARK   96  A    between atoms: _248  and  _249
REMARK   97  A    between atoms: _248  and  _251
REMARK   98  A    between atoms: _251  and  _252
REMARK   99  A    between atoms: _257  and  _258
REMARK  100  A    between atoms: _260  and  _262
REMARK  101  A    between atoms: _262  and  _263
REMARK  102  A    between atoms: _262  and  _265
REMARK  103  A    between atoms: _265  and  _266
REMARK  104  A    between atoms: _269  and  _271
REMARK  105  A    between atoms: _271  and  _272
REMARK  106  A    between atoms: _271  and  _274
REMARK  107  A    between atoms: _274  and  _275
REMARK  108  A    between atoms: _275  and  _496
REMARK  109  A    between atoms: _276  and  _278
REMARK  110  A    between atoms: _278  and  _279
REMARK  111  A    between atoms: _278  and  _281
REMARK  112  A    between atoms: _281  and  _282
REMARK  113  A    between atoms: _285  and  _287
REMARK  114  A    between atoms: _287  and  _288
REMARK  115  A    between atoms: _287  and  _290
REMARK  116  A    between atoms: _290  and  _291
REMARK  117  A    between atoms: _296  and  _297
REMARK  118  A    between atoms: _299  and  _301
REMARK  119  A    between atoms: _301  and  _302
REMARK  120  A    between atoms: _301  and  _304
REMARK  121  A    between atoms: _304  and  _305
REMARK  122  A    between atoms: _310  and  _311
REMARK  123  A    between atoms: _313  and  _315
REMARK  124  A    between atoms: _315  and  _316
REMARK  125  A    between atoms: _315  and  _318
REMARK  126  A    between atoms: _318  and  _319
REMARK  127  A    between atoms: _319  and  _320
REMARK  128  A    between atoms: _323  and  _325
REMARK  129  A    between atoms: _325  and  _326
REMARK  130  A    between atoms: _325  and  _328
REMARK  131  A    between atoms: _328  and  _329
REMARK  132  A    between atoms: _329  and  _330
REMARK  133  A    between atoms: _330  and  _331
REMARK  134  A    between atoms: _331  and  _332
REMARK  135  A    between atoms: _336  and  _338
REMARK  136  A    between atoms: _338  and  _339
REMARK  137  A    between atoms: _338  and  _341
REMARK  138  A    between atoms: _341  and  _342
REMARK  139  A    between atoms: _347  and  _348
REMARK  140  A    between atoms: _350  and  _352
REMARK  141  A    between atoms: _352  and  _353
REMARK  142  A    between atoms: _352  and  _355
REMARK  143  A    between atoms: _355  and  _356
REMARK  144  A    between atoms: _361  and  _363
REMARK  145  A    between atoms: _363  and  _364
REMARK  146  A    between atoms: _363  and  _366
REMARK  147  A    between atoms: _366  and  _367
REMARK  148  A    between atoms: _370  and  _372
REMARK  149  A    between atoms: _372  and  _373
REMARK  150  A    between atoms: _372  and  _375
REMARK  151  A    between atoms: _375  and  _376
REMARK  152  A    between atoms: _381  and  _383
REMARK  153  A    between atoms: _383  and  _384
REMARK  154  A    between atoms: _383  and  _386
REMARK  155  A    between atoms: _386  and  _387
REMARK  156  A    between atoms: _397  and  _399
REMARK  157  A    between atoms: _399  and  _400
REMARK  158  A    between atoms: _399  and  _402
REMARK  159  A    between atoms: _402  and  _403
REMARK  160  A    between atoms: _409  and  _411
REMARK  161  A    between atoms: _411  and  _412
REMARK  162  A    between atoms: _411  and  _414
REMARK  163  A    between atoms: _414  and  _415
REMARK  164  A    between atoms: _418  and  _420
REMARK  165  A    between atoms: _420  and  _421
REMARK  166  A    between atoms: _420  and  _423
REMARK  167  A    between atoms: _423  and  _424
REMARK  168  A    between atoms: _424  and  _425
REMARK  169  A    between atoms: _425  and  _426
REMARK  170  A    between atoms: _435  and  _437
REMARK  171  A    between atoms: _437  and  _438
REMARK  172  A    between atoms: _437  and  _440
REMARK  173  A    between atoms: _440  and  _441
REMARK  174  A    between atoms: _446  and  _448
REMARK  175  A    between atoms: _448  and  _449
REMARK  176  A    between atoms: _448  and  _451
REMARK  177  A    between atoms: _451  and  _452
REMARK  178  A    between atoms: _452  and  _453
REMARK  179  A    between atoms: _453  and  _454
REMARK  180  A    between atoms: _463  and  _465
REMARK  181  A    between atoms: _465  and  _466
REMARK  182  A    between atoms: _469  and  _471
REMARK  183  A    between atoms: _471  and  _472
REMARK  184  A    between atoms: _474  and  _476
REMARK  185  A    between atoms: _476  and  _477
REMARK  186  A    between atoms: _476  and  _479
REMARK  187  A    between atoms: _479  and  _480
REMARK  188  A    between atoms: _490  and  _492
REMARK  189  A    between atoms: _492  and  _493
REMARK  190  A    between atoms: _492  and  _495
REMARK  191  A    between atoms: _495  and  _496
REMARK  192  A    between atoms: _497  and  _499
REMARK  193  A    between atoms: _499  and  _500
REMARK  194  A    between atoms: _503  and  _505
REMARK  195  A    between atoms: _505  and  _506
REMARK  196  A    between atoms: _505  and  _508
REMARK  197  A    between atoms: _508  and  _509
REMARK  198  A    between atoms: _512  and  _514
REMARK  199  A    between atoms: _514  and  _515
REMARK  200  A    between atoms: _514  and  _517
REMARK  201  A    between atoms: _517  and  _518
REMARK  202  A    between atoms: _523  and  _524
REMARK  203  A    between atoms: _526  and  _528
REMARK  204  A    between atoms: _528  and  _529
REMARK  205  A    between atoms: _528  and  _531
REMARK  206  A    between atoms: _531  and  _532
REMARK  207  A    between atoms: _534  and  _536
REMARK  208  A    between atoms: _536  and  _537
REMARK  209  A    between atoms: _536  and  _539
REMARK  210  A    between atoms: _539  and  _540
REMARK  211  A    between atoms: _546  and  _548
REMARK  212  A    between atoms: _548  and  _549
REMARK  213  A    between atoms: _548  and  _551
REMARK  214  A    between atoms: _551  and  _552
REMARK  215  A    between atoms: _555  and  _557
REMARK  216  A    between atoms: _557  and  _558
REMARK  217  A    between atoms: _557  and  _560
REMARK  218  A    between atoms: _560  and  _561
REMARK  219  A    between atoms: _563  and  _565
REMARK  220  A    between atoms: _565  and  _566
REMARK  221  A    between atoms: _565  and  _568
REMARK  222  A    between atoms: _568  and  _569
REMARK  223  A    between atoms: _574  and  _576
REMARK  224  A    between atoms: _576  and  _577
REMARK  225  A    between atoms: _576  and  _579
REMARK  226  A    between atoms: _579  and  _580
REMARK  227  A    between atoms: _585  and  _587
REMARK  228  A    between atoms: _587  and  _588
REMARK  229  A    between atoms: _587  and  _590
REMARK  230  A    between atoms: _590  and  _591
REMARK  231  A    between atoms: _594  and  _596
REMARK  232  A    between atoms: _596  and  _597
REMARK  233  A    between atoms: _600  and  _602
REMARK  234  A    between atoms: _602  and  _603
REMARK  235  A    between atoms: _602  and  _605
REMARK  236  A    between atoms: _605  and  _606
REMARK  237  A    between atoms: _611  and  _612
REMARK  238  A    between atoms: _614  and  _616
REMARK  239  A    between atoms: _616  and  _617
REMARK  240  A    between atoms: _616  and  _619
REMARK  241  A    between atoms: _619  and  _620
REMARK  242  A    between atoms: _625  and  _626
REMARK  243  A    between atoms: _628  and  _630
REMARK  244  A    between atoms: _630  and  _631
REMARK  245  A    between atoms: _630  and  _633
REMARK  246  A    between atoms: _636  and  _638
REMARK  247  A    between atoms: _638  and  _639
REMARK  248  A    between atoms: _638  and  _641
REMARK  249  A    between atoms: _641  and  _642
REMARK  250  A    between atoms: _647  and  _649
REMARK  251  A    between atoms: _649  and  _650
REMARK  252  A    between atoms: _653  and  _655
REMARK  253  A    between atoms: _655  and  _656
REMARK  254  A    between atoms: _655  and  _658
REMARK  255  A    between atoms: _658  and  _659
REMARK  256  A    between atoms: _659  and  _660
REMARK  257  A    between atoms: _660  and  _661
REMARK  258  A    between atoms: _670  and  _672
REMARK  259  A    between atoms: _672  and  _673
REMARK  260  A    between atoms: _672  and  _675
REMARK  261  A    between atoms: _675  and  _676
REMARK  262  A    between atoms: _679  and  _681
REMARK  263  A    between atoms: _681  and  _682
REMARK  264  A    between atoms: _681  and  _684
REMARK  265  A    between atoms: _684  and  _685
REMARK  266  A    between atoms: _688  and  _690
REMARK  267  A    between atoms: _690  and  _691
REMARK  268  A    between atoms: _690  and  _693
REMARK  269  A    between atoms: _693  and  _694
REMARK                            x       y       z     vdW  Elec       q    Type
REMARK                         _______ _______ _______ _____ _____    ______ ____
ROOT
ATOM      1  O   HOH     1      -4.435  27.467  13.827  0.00  0.00    +0.000 OA
ENDROOT
TORSDOF 0
REMARK  Name = ../refined-set-2016/1b3f/1b3f_pocket.pdb
REMARK  269 active torsions:
REMARK  status: ('A' for Active; 'I' for Inactive)
REMARK    1  A    between atoms: _1  and  _3
REMARK    2  A    between atoms: _3  and  _4
REMARK    3  A    between atoms: _3  and  _6
REMARK    4  A    between atoms: _6  and  _7
REMARK    5  A    between atoms: _12  and  _14
REMARK    6  A    between atoms: _14  and  _15
REMARK    7  A    between atoms: _17  and  _19
REMARK    8  A    between atoms: _19  and  _20
REMARK    9  A    between atoms: _19  and  _22
REMARK   10  A    between atoms: _22  and  _23
REMARK   11  A    between atoms: _25  and  _27
REMARK   12  A    between atoms: _27  and  _28
REMARK   13  A    between atoms: _27  and  _30
REMARK   14  A    between atoms: _30  and  _31
REMARK   15  A    between atoms: _31  and  _32
REMARK   16  A    between atoms: _37  and  _39
REMARK   17  A    between atoms: _39  and  _40
REMARK   18  A    between atoms: _39  and  _42
REMARK   19  A    between atoms: _42  and  _43
REMARK   20  A    between atoms: _46  and  _48
REMARK   21  A    between atoms: _48  and  _49
REMARK   22  A    between atoms: _48  and  _51
REMARK   23  A    between atoms: _52  and  _53
REMARK   24  A    between atoms: _56  and  _58
REMARK   25  A    between atoms: _58  and  _59
REMARK   26  A    between atoms: _61  and  _63
REMARK   27  A    between atoms: _63  and  _64
REMARK   28  A    between atoms: _63  and  _66
REMARK   29  A    between atoms: _70  and  _71
REMARK   30  A    between atoms: _76  and  _78
REMARK   31  A    between atoms: _78  and  _79
REMARK   32  A    between atoms: _78  and  _81
REMARK   33  A    between atoms: _81  and  _82
REMARK   34  A    between atoms: _82  and  _83
REMARK   35  A    between atoms: _86  and  _88
REMARK   36  A    between atoms: _88  and  _89
REMARK   37  A    between atoms: _88  and  _91
REMARK   38  A    between atoms: _91  and  _92
REMARK   39  A    between atoms: _94  and  _96
REMARK   40  A    between atoms: _96  and  _97
REMARK   41  A    between atoms: _96  and  _99
REMARK   42  A    between atoms: _99  and  _100
REMARK   43  A    between atoms: _105  and  _107
REMARK   44  A    between atoms: _107  and  _108
REMARK   45  A    between atoms: _107  and  _110
REMARK   46  A    between atoms: _110  and  _111
REMARK   47  A    between atoms: _111  and  _112
REMARK   48  A    between atoms: _112  and  _113
REMARK   49  A    between atoms: _123  and  _124
REMARK   50  A    between atoms: _129  and  _131
REMARK   51  A    between atoms: _131  and  _132
REMARK   52  A    between atoms: _131  and  _134
REMARK   53  A    between atoms: _134  and  _135
REMARK   54  A    between atoms: _140  and  _141
REMARK   55  A    between atoms: _143  and  _145
REMARK   56  A    between atoms: _145  and  _146
REMARK   57  A    between atoms: _145  and  _148
REMARK   58  A    between atoms: _148  and  _149
REMARK   59  A    between atoms: _154  and  _155
REMARK   60  A    between atoms: _157  and  _159
REMARK   61  A    between atoms: _159  and  _160
REMARK   62  A    between atoms: _159  and  _162
REMARK   63  A    between atoms: _165  and  _167
REMARK   64  A    between atoms: _167  and  _168
REMARK   65  A    between atoms: _167  and  _170
REMARK   66  A    between atoms: _170  and  _171
REMARK   67  A    between atoms: _177  and  _178
REMARK   68  A    between atoms: _183  and  _185
REMARK   69  A    between atoms: _185  and  _186
REMARK   70  A    between atoms: _185  and  _188
REMARK   71  A    between atoms: _188  and  _189
REMARK   72  A    between atoms: _191  and  _193
REMARK   73  A    between atoms: _193  and  _194
REMARK   74  A    between atoms: _193  and  _196
REMARK   75  A    between atoms: _196  and  _197
REMARK   76  A    between atoms: _197  and  _198
REMARK   77  A    between atoms: _201  and  _203
REMARK   78  A    between atoms: _203  and  _204
REMARK   79  A    between atoms: _203  and  _206
REMARK   80  A    between atoms: _206  and  _207
REMARK   81  A    between atoms: _212  and  _213
REMARK   82  A    between atoms: _215  and  _217
REMARK   83  A    between atoms: _217  and  _218
REMARK   84  A    between atoms: _217  and  _220
REMARK   85  A    between atoms: _220  and  _221
REMARK   86  A    between atoms: _226  and  _228
REMARK   87  A    between atoms: _228  and  _229
REMARK   88  A    between atoms: _228  and  _231
REMARK   89  A    between atoms: _231  and  _232
REMARK   90  A    between atoms: _237  and  _239
REMARK   91  A    between atoms: _239  and  _240
REMARK   92  A    between atoms: _239  and  _242
REMARK   93  A    between atoms: _242  and  _243
REMARK   94  A    between atoms: _243  and  _244
REMARK   95  A    between atoms: _246  and  _248
REMARK   96  A    between atoms: _248  and  _249
REMARK   97  A    between atoms: _248  and  _251
REMARK   98  A    between atoms: _251  and  _252
REMARK   99  A    between atoms: _257  and  _258
REMARK  100  A    between atoms: _260  and  _262
REMARK  101  A    between atoms: _262  and  _263
REMARK  102  A    between atoms: _262  and  _265
REMARK  103  A    between atoms: _265  and  _266
REMARK  104  A    between atoms: _269  and  _271
REMARK  105  A    between atoms: _271  and  _272
REMARK  106  A    between atoms: _271  and  _274
REMARK  107  A    between atoms: _274  and  _275
REMARK  108  A    between atoms: _275  and  _496
REMARK  109  A    between atoms: _276  and  _278
REMARK  110  A    between atoms: _278  and  _279
REMARK  111  A    between atoms: _278  and  _281
REMARK  112  A    between atoms: _281  and  _282
REMARK  113  A    between atoms: _285  and  _287
REMARK  114  A    between atoms: _287  and  _288
REMARK  115  A    between atoms: _287  and  _290
REMARK  116  A    between atoms: _290  and  _291
REMARK  117  A    between atoms: _296  and  _297
REMARK  118  A    between atoms: _299  and  _301
REMARK  119  A    between atoms: _301  and  _302
REMARK  120  A    between atoms: _301  and  _304
REMARK  121  A    between atoms: _304  and  _305
REMARK  122  A    between atoms: _310  and  _311
REMARK  123  A    between atoms: _313  and  _315
REMARK  124  A    between atoms: _315  and  _316
REMARK  125  A    between atoms: _315  and  _318
REMARK  126  A    between atoms: _318  and  _319
REMARK  127  A    between atoms: _319  and  _320
REMARK  128  A    between atoms: _323  and  _325
REMARK  129  A    between atoms: _325  and  _326
REMARK  130  A    between atoms: _325  and  _328
REMARK  131  A    between atoms: _328  and  _329
REMARK  132  A    between atoms: _329  and  _330
REMARK  133  A    between atoms: _330  and  _331
REMARK  134  A    between atoms: _331  and  _332
REMARK  135  A    between atoms: _336  and  _338
REMARK  136  A    between atoms: _338  and  _339
REMARK  137  A    between atoms: _338  and  _341
REMARK  138  A    between atoms: _341  and  _342
REMARK  139  A    between atoms: _347  and  _348
REMARK  140  A    between atoms: _350  and  _352
REMARK  141  A    between atoms: _352  and  _353
REMARK  142  A    between atoms: _352  and  _355
REMARK  143  A    between atoms: _355  and  _356
REMARK  144  A    between atoms: _361  and  _363
REMARK  145  A    between atoms: _363  and  _364
REMARK  146  A    between atoms: _363  and  _366
REMARK  147  A    between atoms: _366  and  _367
REMARK  148  A    between atoms: _370  and  _372
REMARK  149  A    between atoms: _372  and  _373
REMARK  150  A    between atoms: _372  and  _375
REMARK  151  A    between atoms: _375  and  _376
REMARK  152  A    between atoms: _381  and  _383
REMARK  153  A    between atoms: _383  and  _384
REMARK  154  A    between atoms: _383  and  _386
REMARK  155  A    between atoms: _386  and  _387
REMARK  156  A    between atoms: _397  and  _399
REMARK  157  A    between atoms: _399  and  _400
REMARK  158  A    between atoms: _399  and  _402
REMARK  159  A    between atoms: _402  and  _403
REMARK  160  A    between atoms: _409  and  _411
REMARK  161  A    between atoms: _411  and  _412
REMARK  162  A    between atoms: _411  and  _414
REMARK  163  A    between atoms: _414  and  _415
REMARK  164  A    between atoms: _418  and  _420
REMARK  165  A    between atoms: _420  and  _421
REMARK  166  A    between atoms: _420  and  _423
REMARK  167  A    between atoms: _423  and  _424
REMARK  168  A    between atoms: _424  and  _425
REMARK  169  A    between atoms: _425  and  _426
REMARK  170  A    between atoms: _435  and  _437
REMARK  171  A    between atoms: _437  and  _438
REMARK  172  A    between atoms: _437  and  _440
REMARK  173  A    between atoms: _440  and  _441
REMARK  174  A    between atoms: _446  and  _448
REMARK  175  A    between atoms: _448  and  _449
REMARK  176  A    between atoms: _448  and  _451
REMARK  177  A    between atoms: _451  and  _452
REMARK  178  A    between atoms: _452  and  _453
REMARK  179  A    between atoms: _453  and  _454
REMARK  180  A    between atoms: _463  and  _465
REMARK  181  A    between atoms: _465  and  _466
REMARK  182  A    between atoms: _469  and  _471
REMARK  183  A    between atoms: _471  and  _472
REMARK  184  A    between atoms: _474  and  _476
REMARK  185  A    between atoms: _476  and  _477
REMARK  186  A    between atoms: _476  and  _479
REMARK  187  A    between atoms: _479  and  _480
REMARK  188  A    between atoms: _490  and  _492
REMARK  189  A    between atoms: _492  and  _493
REMARK  190  A    between atoms: _492  and  _495
REMARK  191  A    between atoms: _495  and  _496
REMARK  192  A    between atoms: _497  and  _499
REMARK  193  A    between atoms: _499  and  _500
REMARK  194  A    between atoms: _503  and  _505
REMARK  195  A    between atoms: _505  and  _506
REMARK  196  A    between atoms: _505  and  _508
REMARK  197  A    between atoms: _508  and  _509
REMARK  198  A    between atoms: _512  and  _514
REMARK  199  A    between atoms: _514  and  _515
REMARK  200  A    between atoms: _514  and  _517
REMARK  201  A    between atoms: _517  and  _518
REMARK  202  A    between atoms: _523  and  _524
REMARK  203  A    between atoms: _526  and  _528
REMARK  204  A    between atoms: _528  and  _529
REMARK  205  A    between atoms: _528  and  _531
REMARK  206  A    between atoms: _531  and  _532
REMARK  207  A    between atoms: _534  and  _536
REMARK  208  A    between atoms: _536  and  _537
REMARK  209  A    between atoms: _536  and  _539
REMARK  210  A    between atoms: _539  and  _540
REMARK  211  A    between atoms: _546  and  _548
REMARK  212  A    between atoms: _548  and  _549
REMARK  213  A    between atoms: _548  and  _551
REMARK  214  A    between atoms: _551  and  _552
REMARK  215  A    between atoms: _555  and  _557
REMARK  216  A    between atoms: _557  and  _558
REMARK  217  A    between atoms: _557  and  _560
REMARK  218  A    between atoms: _560  and  _561
REMARK  219  A    between atoms: _563  and  _565
REMARK  220  A    between atoms: _565  and  _566
REMARK  221  A    between atoms: _565  and  _568
REMARK  222  A    between atoms: _568  and  _569
REMARK  223  A    between atoms: _574  and  _576
REMARK  224  A    between atoms: _576  and  _577
REMARK  225  A    between atoms: _576  and  _579
REMARK  226  A    between atoms: _579  and  _580
REMARK  227  A    between atoms: _585  and  _587
REMARK  228  A    between atoms: _587  and  _588
REMARK  229  A    between atoms: _587  and  _590
REMARK  230  A    between atoms: _590  and  _591
REMARK  231  A    between atoms: _594  and  _596
REMARK  232  A    between atoms: _596  and  _597
REMARK  233  A    between atoms: _600  and  _602
REMARK  234  A    between atoms: _602  and  _603
REMARK  235  A    between atoms: _602  and  _605
REMARK  236  A    between atoms: _605  and  _606
REMARK  237  A    between atoms: _611  and  _612
REMARK  238  A    between atoms: _614  and  _616
REMARK  239  A    between atoms: _616  and  _617
REMARK  240  A    between atoms: _616  and  _619
REMARK  241  A    between atoms: _619  and  _620
REMARK  242  A    between atoms: _625  and  _626
REMARK  243  A    between atoms: _628  and  _630
REMARK  244  A    between atoms: _630  and  _631
REMARK  245  A    between atoms: _630  and  _633
REMARK  246  A    between atoms: _636  and  _638
REMARK  247  A    between atoms: _638  and  _639
REMARK  248  A    between atoms: _638  and  _641
REMARK  249  A    between atoms: _641  and  _642
REMARK  250  A    between atoms: _647  and  _649
REMARK  251  A    between atoms: _649  and  _650
REMARK  252  A    between atoms: _653  and  _655
REMARK  253  A    between atoms: _655  and  _656
REMARK  254  A    between atoms: _655  and  _658
REMARK  255  A    between atoms: _658  and  _659
REMARK  256  A    between atoms: _659  and  _660
REMARK  257  A    between atoms: _660  and  _661
REMARK  258  A    between atoms: _670  and  _672
REMARK  259  A    between atoms: _672  and  _673
REMARK  260  A    between atoms: _672  and  _675
REMARK  261  A    between atoms: _675  and  _676
REMARK  262  A    between atoms: _679  and  _681
REMARK  263  A    between atoms: _681  and  _682
REMARK  264  A    between atoms: _681  and  _684
REMARK  265  A    between atoms: _684  and  _685
REMARK  266  A    between atoms: _688  and  _690
REMARK  267  A    between atoms: _690  and  _691
REMARK  268  A    between atoms: _690  and  _693
REMARK  269  A    between atoms: _693  and  _694
REMARK                            x       y       z     vdW  Elec       q    Type
REMARK                         _______ _______ _______ _____ _____    ______ ____
ROOT
ATOM      1  O   HOH     1      11.251  13.743  16.751  0.00  0.00    +0.000 OA
ENDROOT
TORSDOF 0
REMARK  Name = ../refined-set-2016/1b3f/1b3f_pocket.pdb
REMARK  269 active torsions:
REMARK  status: ('A' for Active; 'I' for Inactive)
REMARK    1  A    between atoms: _1  and  _3
REMARK    2  A    between atoms: _3  and  _4
REMARK    3  A    between atoms: _3  and  _6
REMARK    4  A    between atoms: _6  and  _7
REMARK    5  A    between atoms: _12  and  _14
REMARK    6  A    between atoms: _14  and  _15
REMARK    7  A    between atoms: _17  and  _19
REMARK    8  A    between atoms: _19  and  _20
REMARK    9  A    between atoms: _19  and  _22
REMARK   10  A    between atoms: _22  and  _23
REMARK   11  A    between atoms: _25  and  _27
REMARK   12  A    between atoms: _27  and  _28
REMARK   13  A    between atoms: _27  and  _30
REMARK   14  A    between atoms: _30  and  _31
REMARK   15  A    between atoms: _31  and  _32
REMARK   16  A    between atoms: _37  and  _39
REMARK   17  A    between atoms: _39  and  _40
REMARK   18  A    between atoms: _39  and  _42
REMARK   19  A    between atoms: _42  and  _43
REMARK   20  A    between atoms: _46  and  _48
REMARK   21  A    between atoms: _48  and  _49
REMARK   22  A    between atoms: _48  and  _51
REMARK   23  A    between atoms: _52  and  _53
REMARK   24  A    between atoms: _56  and  _58
REMARK   25  A    between atoms: _58  and  _59
REMARK   26  A    between atoms: _61  and  _63
REMARK   27  A    between atoms: _63  and  _64
REMARK   28  A    between atoms: _63  and  _66
REMARK   29  A    between atoms: _70  and  _71
REMARK   30  A    between atoms: _76  and  _78
REMARK   31  A    between atoms: _78  and  _79
REMARK   32  A    between atoms: _78  and  _81
REMARK   33  A    between atoms: _81  and  _82
REMARK   34  A    between atoms: _82  and  _83
REMARK   35  A    between atoms: _86  and  _88
REMARK   36  A    between atoms: _88  and  _89
REMARK   37  A    between atoms: _88  and  _91
REMARK   38  A    between atoms: _91  and  _92
REMARK   39  A    between atoms: _94  and  _96
REMARK   40  A    between atoms: _96  and  _97
REMARK   41  A    between atoms: _96  and  _99
REMARK   42  A    between atoms: _99  and  _100
REMARK   43  A    between atoms: _105  and  _107
REMARK   44  A    between atoms: _107  and  _108
REMARK   45  A    between atoms: _107  and  _110
REMARK   46  A    between atoms: _110  and  _111
REMARK   47  A    between atoms: _111  and  _112
REMARK   48  A    between atoms: _112  and  _113
REMARK   49  A    between atoms: _123  and  _124
REMARK   50  A    between atoms: _129  and  _131
REMARK   51  A    between atoms: _131  and  _132
REMARK   52  A    between atoms: _131  and  _134
REMARK   53  A    between atoms: _134  and  _135
REMARK   54  A    between atoms: _140  and  _141
REMARK   55  A    between atoms: _143  and  _145
REMARK   56  A    between atoms: _145  and  _146
REMARK   57  A    between atoms: _145  and  _148
REMARK   58  A    between atoms: _148  and  _149
REMARK   59  A    between atoms: _154  and  _155
REMARK   60  A    between atoms: _157  and  _159
REMARK   61  A    between atoms: _159  and  _160
REMARK   62  A    between atoms: _159  and  _162
REMARK   63  A    between atoms: _165  and  _167
REMARK   64  A    between atoms: _167  and  _168
REMARK   65  A    between atoms: _167  and  _170
REMARK   66  A    between atoms: _170  and  _171
REMARK   67  A    between atoms: _177  and  _178
REMARK   68  A    between atoms: _183  and  _185
REMARK   69  A    between atoms: _185  and  _186
REMARK   70  A    between atoms: _185  and  _188
REMARK   71  A    between atoms: _188  and  _189
REMARK   72  A    between atoms: _191  and  _193
REMARK   73  A    between atoms: _193  and  _194
REMARK   74  A    between atoms: _193  and  _196
REMARK   75  A    between atoms: _196  and  _197
REMARK   76  A    between atoms: _197  and  _198
REMARK   77  A    between atoms: _201  and  _203
REMARK   78  A    between atoms: _203  and  _204
REMARK   79  A    between atoms: _203  and  _206
REMARK   80  A    between atoms: _206  and  _207
REMARK   81  A    between atoms: _212  and  _213
REMARK   82  A    between atoms: _215  and  _217
REMARK   83  A    between atoms: _217  and  _218
REMARK   84  A    between atoms: _217  and  _220
REMARK   85  A    between atoms: _220  and  _221
REMARK   86  A    between atoms: _226  and  _228
REMARK   87  A    between atoms: _228  and  _229
REMARK   88  A    between atoms: _228  and  _231
REMARK   89  A    between atoms: _231  and  _232
REMARK   90  A    between atoms: _237  and  _239
REMARK   91  A    between atoms: _239  and  _240
REMARK   92  A    between atoms: _239  and  _242
REMARK   93  A    between atoms: _242  and  _243
REMARK   94  A    between atoms: _243  and  _244
REMARK   95  A    between atoms: _246  and  _248
REMARK   96  A    between atoms: _248  and  _249
REMARK   97  A    between atoms: _248  and  _251
REMARK   98  A    between atoms: _251  and  _252
REMARK   99  A    between atoms: _257  and  _258
REMARK  100  A    between atoms: _260  and  _262
REMARK  101  A    between atoms: _262  and  _263
REMARK  102  A    between atoms: _262  and  _265
REMARK  103  A    between atoms: _265  and  _266
REMARK  104  A    between atoms: _269  and  _271
REMARK  105  A    between atoms: _271  and  _272
REMARK  106  A    between atoms: _271  and  _274
REMARK  107  A    between atoms: _274  and  _275
REMARK  108  A    between atoms: _275  and  _496
REMARK  109  A    between atoms: _276  and  _278
REMARK  110  A    between atoms: _278  and  _279
REMARK  111  A    between atoms: _278  and  _281
REMARK  112  A    between atoms: _281  and  _282
REMARK  113  A    between atoms: _285  and  _287
REMARK  114  A    between atoms: _287  and  _288
REMARK  115  A    between atoms: _287  and  _290
REMARK  116  A    between atoms: _290  and  _291
REMARK  117  A    between atoms: _296  and  _297
REMARK  118  A    between atoms: _299  and  _301
REMARK  119  A    between atoms: _301  and  _302
REMARK  120  A    between atoms: _301  and  _304
REMARK  121  A    between atoms: _304  and  _305
REMARK  122  A    between atoms: _310  and  _311
REMARK  123  A    between atoms: _313  and  _315
REMARK  124  A    between atoms: _315  and  _316
REMARK  125  A    between atoms: _315  and  _318
REMARK  126  A    between atoms: _318  and  _319
REMARK  127  A    between atoms: _319  and  _320
REMARK  128  A    between atoms: _323  and  _325
REMARK  129  A    between atoms: _325  and  _326
REMARK  130  A    between atoms: _325  and  _328
REMARK  131  A    between atoms: _328  and  _329
REMARK  132  A    between atoms: _329  and  _330
REMARK  133  A    between atoms: _330  and  _331
REMARK  134  A    between atoms: _331  and  _332
REMARK  135  A    between atoms: _336  and  _338
REMARK  136  A    between atoms: _338  and  _339
REMARK  137  A    between atoms: _338  and  _341
REMARK  138  A    between atoms: _341  and  _342
REMARK  139  A    between atoms: _347  and  _348
REMARK  140  A    between atoms: _350  and  _352
REMARK  141  A    between atoms: _352  and  _353
REMARK  142  A    between atoms: _352  and  _355
REMARK  143  A    between atoms: _355  and  _356
REMARK  144  A    between atoms: _361  and  _363
REMARK  145  A    between atoms: _363  and  _364
REMARK  146  A    between atoms: _363  and  _366
REMARK  147  A    between atoms: _366  and  _367
REMARK  148  A    between atoms: _370  and  _372
REMARK  149  A    between atoms: _372  and  _373
REMARK  150  A    between atoms: _372  and  _375
REMARK  151  A    between atoms: _375  and  _376
REMARK  152  A    between atoms: _381  and  _383
REMARK  153  A    between atoms: _383  and  _384
REMARK  154  A    between atoms: _383  and  _386
REMARK  155  A    between atoms: _386  and  _387
REMARK  156  A    between atoms: _397  and  _399
REMARK  157  A    between atoms: _399  and  _400
REMARK  158  A    between atoms: _399  and  _402
REMARK  159  A    between atoms: _402  and  _403
REMARK  160  A    between atoms: _409  and  _411
REMARK  161  A    between atoms: _411  and  _412
REMARK  162  A    between atoms: _411  and  _414
REMARK  163  A    between atoms: _414  and  _415
REMARK  164  A    between atoms: _418  and  _420
REMARK  165  A    between atoms: _420  and  _421
REMARK  166  A    between atoms: _420  and  _423
REMARK  167  A    between atoms: _423  and  _424
REMARK  168  A    between atoms: _424  and  _425
REMARK  169  A    between atoms: _425  and  _426
REMARK  170  A    between atoms: _435  and  _437
REMARK  171  A    between atoms: _437  and  _438
REMARK  172  A    between atoms: _437  and  _440
REMARK  173  A    between atoms: _440  and  _441
REMARK  174  A    between atoms: _446  and  _448
REMARK  175  A    between atoms: _448  and  _449
REMARK  176  A    between atoms: _448  and  _451
REMARK  177  A    between atoms: _451  and  _452
REMARK  178  A    between atoms: _452  and  _453
REMARK  179  A    between atoms: _453  and  _454
REMARK  180  A    between atoms: _463  and  _465
REMARK  181  A    between atoms: _465  and  _466
REMARK  182  A    between atoms: _469  and  _471
REMARK  183  A    between atoms: _471  and  _472
REMARK  184  A    between atoms: _474  and  _476
REMARK  185  A    between atoms: _476  and  _477
REMARK  186  A    between atoms: _476  and  _479
REMARK  187  A    between atoms: _479  and  _480
REMARK  188  A    between atoms: _490  and  _492
REMARK  189  A    between atoms: _492  and  _493
REMARK  190  A    between atoms: _492  and  _495
REMARK  191  A    between atoms: _495  and  _496
REMARK  192  A    between atoms: _497  and  _499
REMARK  193  A    between atoms: _499  and  _500
REMARK  194  A    between atoms: _503  and  _505
REMARK  195  A    between atoms: _505  and  _506
REMARK  196  A    between atoms: _505  and  _508
REMARK  197  A    between atoms: _508  and  _509
REMARK  198  A    between atoms: _512  and  _514
REMARK  199  A    between atoms: _514  and  _515
REMARK  200  A    between atoms: _514  and  _517
REMARK  201  A    between atoms: _517  and  _518
REMARK  202  A    between atoms: _523  and  _524
REMARK  203  A    between atoms: _526  and  _528
REMARK  204  A    between atoms: _528  and  _529
REMARK  205  A    between atoms: _528  and  _531
REMARK  206  A    between atoms: _531  and  _532
REMARK  207  A    between atoms: _534  and  _536
REMARK  208  A    between atoms: _536  and  _537
REMARK  209  A    between atoms: _536  and  _539
REMARK  210  A    between atoms: _539  and  _540
REMARK  211  A    between atoms: _546  and  _548
REMARK  212  A    between atoms: _548  and  _549
REMARK  213  A    between atoms: _548  and  _551
REMARK  214  A    between atoms: _551  and  _552
REMARK  215  A    between atoms: _555  and  _557
REMARK  216  A    between atoms: _557  and  _558
REMARK  217  A    between atoms: _557  and  _560
REMARK  218  A    between atoms: _560  and  _561
REMARK  219  A    between atoms: _563  and  _565
REMARK  220  A    between atoms: _565  and  _566
REMARK  221  A    between atoms: _565  and  _568
REMARK  222  A    between atoms: _568  and  _569
REMARK  223  A    between atoms: _574  and  _576
REMARK  224  A    between atoms: _576  and  _577
REMARK  225  A    between atoms: _576  and  _579
REMARK  226  A    between atoms: _579  and  _580
REMARK  227  A    between atoms: _585  and  _587
REMARK  228  A    between atoms: _587  and  _588
REMARK  229  A    between atoms: _587  and  _590
REMARK  230  A    between atoms: _590  and  _591
REMARK  231  A    between atoms: _594  and  _596
REMARK  232  A    between atoms: _596  and  _597
REMARK  233  A    between atoms: _600  and  _602
REMARK  234  A    between atoms: _602  and  _603
REMARK  235  A    between atoms: _602  and  _605
REMARK  236  A    between atoms: _605  and  _606
REMARK  237  A    between atoms: _611  and  _612
REMARK  238  A    between atoms: _614  and  _616
REMARK  239  A    between atoms: _616  and  _617
REMARK  240  A    between atoms: _616  and  _619
REMARK  241  A    between atoms: _619  and  _620
REMARK  242  A    between atoms: _625  and  _626
REMARK  243  A    between atoms: _628  and  _630
REMARK  244  A    between atoms: _630  and  _631
REMARK  245  A    between atoms: _630  and  _633
REMARK  246  A    between atoms: _636  and  _638
REMARK  247  A    between atoms: _638  and  _639
REMARK  248  A    between atoms: _638  and  _641
REMARK  249  A    between atoms: _641  and  _642
REMARK  250  A    between atoms: _647  and  _649
REMARK  251  A    between atoms: _649  and  _650
REMARK  252  A    between atoms: _653  and  _655
REMARK  253  A    between atoms: _655  and  _656
REMARK  254  A    between atoms: _655  and  _658
REMARK  255  A    between atoms: _658  and  _659
REMARK  256  A    between atoms: _659  and  _660
REMARK  257  A    between atoms: _660  and  _661
REMARK  258  A    between atoms: _670  and  _672
REMARK  259  A    between atoms: _672  and  _673
REMARK  260  A    between atoms: _672  and  _675
REMARK  261  A    between atoms: _675  and  _676
REMARK  262  A    between atoms: _679  and  _681
REMARK  263  A    between atoms: _681  and  _682
REMARK  264  A    between atoms: _681  and  _684
REMARK  265  A    between atoms: _684  and  _685
REMARK  266  A    between atoms: _688  and  _690
REMARK  267  A    between atoms: _690  and  _691
REMARK  268  A    between atoms: _690  and  _693
REMARK  269  A    between atoms: _693  and  _694
REMARK                            x       y       z     vdW  Elec       q    Type
REMARK                         _______ _______ _______ _____ _____    ______ ____
ROOT
ATOM      1  O   HOH     1       5.409  20.228  25.390  0.00  0.00    +0.000 OA
ENDROOT
TORSDOF 0
REMARK  Name = ../refined-set-2016/1b3f/1b3f_pocket.pdb
REMARK  269 active torsions:
REMARK  status: ('A' for Active; 'I' for Inactive)
REMARK    1  A    between atoms: _1  and  _3
REMARK    2  A    between atoms: _3  and  _4
REMARK    3  A    between atoms: _3  and  _6
REMARK    4  A    between atoms: _6  and  _7
REMARK    5  A    between atoms: _12  and  _14
REMARK    6  A    between atoms: _14  and  _15
REMARK    7  A    between atoms: _17  and  _19
REMARK    8  A    between atoms: _19  and  _20
REMARK    9  A    between atoms: _19  and  _22
REMARK   10  A    between atoms: _22  and  _23
REMARK   11  A    between atoms: _25  and  _27
REMARK   12  A    between atoms: _27  and  _28
REMARK   13  A    between atoms: _27  and  _30
REMARK   14  A    between atoms: _30  and  _31
REMARK   15  A    between atoms: _31  and  _32
REMARK   16  A    between atoms: _37  and  _39
REMARK   17  A    between atoms: _39  and  _40
REMARK   18  A    between atoms: _39  and  _42
REMARK   19  A    between atoms: _42  and  _43
REMARK   20  A    between atoms: _46  and  _48
REMARK   21  A    between atoms: _48  and  _49
REMARK   22  A    between atoms: _48  and  _51
REMARK   23  A    between atoms: _52  and  _53
REMARK   24  A    between atoms: _56  and  _58
REMARK   25  A    between atoms: _58  and  _59
REMARK   26  A    between atoms: _61  and  _63
REMARK   27  A    between atoms: _63  and  _64
REMARK   28  A    between atoms: _63  and  _66
REMARK   29  A    between atoms: _70  and  _71
REMARK   30  A    between atoms: _76  and  _78
REMARK   31  A    between atoms: _78  and  _79
REMARK   32  A    between atoms: _78  and  _81
REMARK   33  A    between atoms: _81  and  _82
REMARK   34  A    between atoms: _82  and  _83
REMARK   35  A    between atoms: _86  and  _88
REMARK   36  A    between atoms: _88  and  _89
REMARK   37  A    between atoms: _88  and  _91
REMARK   38  A    between atoms: _91  and  _92
REMARK   39  A    between atoms: _94  and  _96
REMARK   40  A    between atoms: _96  and  _97
REMARK   41  A    between atoms: _96  and  _99
REMARK   42  A    between atoms: _99  and  _100
REMARK   43  A    between atoms: _105  and  _107
REMARK   44  A    between atoms: _107  and  _108
REMARK   45  A    between atoms: _107  and  _110
REMARK   46  A    between atoms: _110  and  _111
REMARK   47  A    between atoms: _111  and  _112
REMARK   48  A    between atoms: _112  and  _113
REMARK   49  A    between atoms: _123  and  _124
REMARK   50  A    between atoms: _129  and  _131
REMARK   51  A    between atoms: _131  and  _132
REMARK   52  A    between atoms: _131  and  _134
REMARK   53  A    between atoms: _134  and  _135
REMARK   54  A    between atoms: _140  and  _141
REMARK   55  A    between atoms: _143  and  _145
REMARK   56  A    between atoms: _145  and  _146
REMARK   57  A    between atoms: _145  and  _148
REMARK   58  A    between atoms: _148  and  _149
REMARK   59  A    between atoms: _154  and  _155
REMARK   60  A    between atoms: _157  and  _159
REMARK   61  A    between atoms: _159  and  _160
REMARK   62  A    between atoms: _159  and  _162
REMARK   63  A    between atoms: _165  and  _167
REMARK   64  A    between atoms: _167  and  _168
REMARK   65  A    between atoms: _167  and  _170
REMARK   66  A    between atoms: _170  and  _171
REMARK   67  A    between atoms: _177  and  _178
REMARK   68  A    between atoms: _183  and  _185
REMARK   69  A    between atoms: _185  and  _186
REMARK   70  A    between atoms: _185  and  _188
REMARK   71  A    between atoms: _188  and  _189
REMARK   72  A    between atoms: _191  and  _193
REMARK   73  A    between atoms: _193  and  _194
REMARK   74  A    between atoms: _193  and  _196
REMARK   75  A    between atoms: _196  and  _197
REMARK   76  A    between atoms: _197  and  _198
REMARK   77  A    between atoms: _201  and  _203
REMARK   78  A    between atoms: _203  and  _204
REMARK   79  A    between atoms: _203  and  _206
REMARK   80  A    between atoms: _206  and  _207
REMARK   81  A    between atoms: _212  and  _213
REMARK   82  A    between atoms: _215  and  _217
REMARK   83  A    between atoms: _217  and  _218
REMARK   84  A    between atoms: _217  and  _220
REMARK   85  A    between atoms: _220  and  _221
REMARK   86  A    between atoms: _226  and  _228
REMARK   87  A    between atoms: _228  and  _229
REMARK   88  A    between atoms: _228  and  _231
REMARK   89  A    between atoms: _231  and  _232
REMARK   90  A    between atoms: _237  and  _239
REMARK   91  A    between atoms: _239  and  _240
REMARK   92  A    between atoms: _239  and  _242
REMARK   93  A    between atoms: _242  and  _243
REMARK   94  A    between atoms: _243  and  _244
REMARK   95  A    between atoms: _246  and  _248
REMARK   96  A    between atoms: _248  and  _249
REMARK   97  A    between atoms: _248  and  _251
REMARK   98  A    between atoms: _251  and  _252
REMARK   99  A    between atoms: _257  and  _258
REMARK  100  A    between atoms: _260  and  _262
REMARK  101  A    between atoms: _262  and  _263
REMARK  102  A    between atoms: _262  and  _265
REMARK  103  A    between atoms: _265  and  _266
REMARK  104  A    between atoms: _269  and  _271
REMARK  105  A    between atoms: _271  and  _272
REMARK  106  A    between atoms: _271  and  _274
REMARK  107  A    between atoms: _274  and  _275
REMARK  108  A    between atoms: _275  and  _496
REMARK  109  A    between atoms: _276  and  _278
REMARK  110  A    between atoms: _278  and  _279
REMARK  111  A    between atoms: _278  and  _281
REMARK  112  A    between atoms: _281  and  _282
REMARK  113  A    between atoms: _285  and  _287
REMARK  114  A    between atoms: _287  and  _288
REMARK  115  A    between atoms: _287  and  _290
REMARK  116  A    between atoms: _290  and  _291
REMARK  117  A    between atoms: _296  and  _297
REMARK  118  A    between atoms: _299  and  _301
REMARK  119  A    between atoms: _301  and  _302
REMARK  120  A    between atoms: _301  and  _304
REMARK  121  A    between atoms: _304  and  _305
REMARK  122  A    between atoms: _310  and  _311
REMARK  123  A    between atoms: _313  and  _315
REMARK  124  A    between atoms: _315  and  _316
REMARK  125  A    between atoms: _315  and  _318
REMARK  126  A    between atoms: _318  and  _319
REMARK  127  A    between atoms: _319  and  _320
REMARK  128  A    between atoms: _323  and  _325
REMARK  129  A    between atoms: _325  and  _326
REMARK  130  A    between atoms: _325  and  _328
REMARK  131  A    between atoms: _328  and  _329
REMARK  132  A    between atoms: _329  and  _330
REMARK  133  A    between atoms: _330  and  _331
REMARK  134  A    between atoms: _331  and  _332
REMARK  135  A    between atoms: _336  and  _338
REMARK  136  A    between atoms: _338  and  _339
REMARK  137  A    between atoms: _338  and  _341
REMARK  138  A    between atoms: _341  and  _342
REMARK  139  A    between atoms: _347  and  _348
REMARK  140  A    between atoms: _350  and  _352
REMARK  141  A    between atoms: _352  and  _353
REMARK  142  A    between atoms: _352  and  _355
REMARK  143  A    between atoms: _355  and  _356
REMARK  144  A    between atoms: _361  and  _363
REMARK  145  A    between atoms: _363  and  _364
REMARK  146  A    between atoms: _363  and  _366
REMARK  147  A    between atoms: _366  and  _367
REMARK  148  A    between atoms: _370  and  _372
REMARK  149  A    between atoms: _372  and  _373
REMARK  150  A    between atoms: _372  and  _375
REMARK  151  A    between atoms: _375  and  _376
REMARK  152  A    between atoms: _381  and  _383
REMARK  153  A    between atoms: _383  and  _384
REMARK  154  A    between atoms: _383  and  _386
REMARK  155  A    between atoms: _386  and  _387
REMARK  156  A    between atoms: _397  and  _399
REMARK  157  A    between atoms: _399  and  _400
REMARK  158  A    between atoms: _399  and  _402
REMARK  159  A    between atoms: _402  and  _403
REMARK  160  A    between atoms: _409  and  _411
REMARK  161  A    between atoms: _411  and  _412
REMARK  162  A    between atoms: _411  and  _414
REMARK  163  A    between atoms: _414  and  _415
REMARK  164  A    between atoms: _418  and  _420
REMARK  165  A    between atoms: _420  and  _421
REMARK  166  A    between atoms: _420  and  _423
REMARK  167  A    between atoms: _423  and  _424
REMARK  168  A    between atoms: _424  and  _425
REMARK  169  A    between atoms: _425  and  _426
REMARK  170  A    between atoms: _435  and  _437
REMARK  171  A    between atoms: _437  and  _438
REMARK  172  A    between atoms: _437  and  _440
REMARK  173  A    between atoms: _440  and  _441
REMARK  174  A    between atoms: _446  and  _448
REMARK  175  A    between atoms: _448  and  _449
REMARK  176  A    between atoms: _448  and  _451
REMARK  177  A    between atoms: _451  and  _452
REMARK  178  A    between atoms: _452  and  _453
REMARK  179  A    between atoms: _453  and  _454
REMARK  180  A    between atoms: _463  and  _465
REMARK  181  A    between atoms: _465  and  _466
REMARK  182  A    between atoms: _469  and  _471
REMARK  183  A    between atoms: _471  and  _472
REMARK  184  A    between atoms: _474  and  _476
REMARK  185  A    between atoms: _476  and  _477
REMARK  186  A    between atoms: _476  and  _479
REMARK  187  A    between atoms: _479  and  _480
REMARK  188  A    between atoms: _490  and  _492
REMARK  189  A    between atoms: _492  and  _493
REMARK  190  A    between atoms: _492  and  _495
REMARK  191  A    between atoms: _495  and  _496
REMARK  192  A    between atoms: _497  and  _499
REMARK  193  A    between atoms: _499  and  _500
REMARK  194  A    between atoms: _503  and  _505
REMARK  195  A    between atoms: _505  and  _506
REMARK  196  A    between atoms: _505  and  _508
REMARK  197  A    between atoms: _508  and  _509
REMARK  198  A    between atoms: _512  and  _514
REMARK  199  A    between atoms: _514  and  _515
REMARK  200  A    between atoms: _514  and  _517
REMARK  201  A    between atoms: _517  and  _518
REMARK  202  A    between atoms: _523  and  _524
REMARK  203  A    between atoms: _526  and  _528
REMARK  204  A    between atoms: _528  and  _529
REMARK  205  A    between atoms: _528  and  _531
REMARK  206  A    between atoms: _531  and  _532
REMARK  207  A    between atoms: _534  and  _536
REMARK  208  A    between atoms: _536  and  _537
REMARK  209  A    between atoms: _536  and  _539
REMARK  210  A    between atoms: _539  and  _540
REMARK  211  A    between atoms: _546  and  _548
REMARK  212  A    between atoms: _548  and  _549
REMARK  213  A    between atoms: _548  and  _551
REMARK  214  A    between atoms: _551  and  _552
REMARK  215  A    between atoms: _555  and  _557
REMARK  216  A    between atoms: _557  and  _558
REMARK  217  A    between atoms: _557  and  _560
REMARK  218  A    between atoms: _560  and  _561
REMARK  219  A    between atoms: _563  and  _565
REMARK  220  A    between atoms: _565  and  _566
REMARK  221  A    between atoms: _565  and  _568
REMARK  222  A    between atoms: _568  and  _569
REMARK  223  A    between atoms: _574  and  _576
REMARK  224  A    between atoms: _576  and  _577
REMARK  225  A    between atoms: _576  and  _579
REMARK  226  A    between atoms: _579  and  _580
REMARK  227  A    between atoms: _585  and  _587
REMARK  228  A    between atoms: _587  and  _588
REMARK  229  A    between atoms: _587  and  _590
REMARK  230  A    between atoms: _590  and  _591
REMARK  231  A    between atoms: _594  and  _596
REMARK  232  A    between atoms: _596  and  _597
REMARK  233  A    between atoms: _600  and  _602
REMARK  234  A    between atoms: _602  and  _603
REMARK  235  A    between atoms: _602  and  _605
REMARK  236  A    between atoms: _605  and  _606
REMARK  237  A    between atoms: _611  and  _612
REMARK  238  A    between atoms: _614  and  _616
REMARK  239  A    between atoms: _616  and  _617
REMARK  240  A    between atoms: _616  and  _619
REMARK  241  A    between atoms: _619  and  _620
REMARK  242  A    between atoms: _625  and  _626
REMARK  243  A    between atoms: _628  and  _630
REMARK  244  A    between atoms: _630  and  _631
REMARK  245  A    between atoms: _630  and  _633
REMARK  246  A    between atoms: _636  and  _638
REMARK  247  A    between atoms: _638  and  _639
REMARK  248  A    between atoms: _638  and  _641
REMARK  249  A    between atoms: _641  and  _642
REMARK  250  A    between atoms: _647  and  _649
REMARK  251  A    between atoms: _649  and  _650
REMARK  252  A    between atoms: _653  and  _655
REMARK  253  A    between atoms: _655  and  _656
REMARK  254  A    between atoms: _655  and  _658
REMARK  255  A    between atoms: _658  and  _659
REMARK  256  A    between atoms: _659  and  _660
REMARK  257  A    between atoms: _660  and  _661
REMARK  258  A    between atoms: _670  and  _672
REMARK  259  A    between atoms: _672  and  _673
REMARK  260  A    between atoms: _672  and  _675
REMARK  261  A    between atoms: _675  and  _676
REMARK  262  A    between atoms: _679  and  _681
REMARK  263  A    between atoms: _681  and  _682
REMARK  264  A    between atoms: _681  and  _684
REMARK  265  A    between atoms: _684  and  _685
REMARK  266  A    between atoms: _688  and  _690
REMARK  267  A    between atoms: _690  and  _691
REMARK  268  A    between atoms: _690  and  _693
REMARK  269  A    between atoms: _693  and  _694
REMARK                            x       y       z     vdW  Elec       q    Type
REMARK                         _______ _______ _______ _____ _____    ______ ____
ROOT
ATOM      1  O   HOH     1       3.412  16.840   8.154  0.00  0.00    +0.000 OA
ENDROOT
TORSDOF 0
REMARK  Name = ../refined-set-2016/1b3f/1b3f_pocket.pdb
REMARK  269 active torsions:
REMARK  status: ('A' for Active; 'I' for Inactive)
REMARK    1  A    between atoms: _1  and  _3
REMARK    2  A    between atoms: _3  and  _4
REMARK    3  A    between atoms: _3  and  _6
REMARK    4  A    between atoms: _6  and  _7
REMARK    5  A    between atoms: _12  and  _14
REMARK    6  A    between atoms: _14  and  _15
REMARK    7  A    between atoms: _17  and  _19
REMARK    8  A    between atoms: _19  and  _20
REMARK    9  A    between atoms: _19  and  _22
REMARK   10  A    between atoms: _22  and  _23
REMARK   11  A    between atoms: _25  and  _27
REMARK   12  A    between atoms: _27  and  _28
REMARK   13  A    between atoms: _27  and  _30
REMARK   14  A    between atoms: _30  and  _31
REMARK   15  A    between atoms: _31  and  _32
REMARK   16  A    between atoms: _37  and  _39
REMARK   17  A    between atoms: _39  and  _40
REMARK   18  A    between atoms: _39  and  _42
REMARK   19  A    between atoms: _42  and  _43
REMARK   20  A    between atoms: _46  and  _48
REMARK   21  A    between atoms: _48  and  _49
REMARK   22  A    between atoms: _48  and  _51
REMARK   23  A    between atoms: _52  and  _53
REMARK   24  A    between atoms: _56  and  _58
REMARK   25  A    between atoms: _58  and  _59
REMARK   26  A    between atoms: _61  and  _63
REMARK   27  A    between atoms: _63  and  _64
REMARK   28  A    between atoms: _63  and  _66
REMARK   29  A    between atoms: _70  and  _71
REMARK   30  A    between atoms: _76  and  _78
REMARK   31  A    between atoms: _78  and  _79
REMARK   32  A    between atoms: _78  and  _81
REMARK   33  A    between atoms: _81  and  _82
REMARK   34  A    between atoms: _82  and  _83
REMARK   35  A    between atoms: _86  and  _88
REMARK   36  A    between atoms: _88  and  _89
REMARK   37  A    between atoms: _88  and  _91
REMARK   38  A    between atoms: _91  and  _92
REMARK   39  A    between atoms: _94  and  _96
REMARK   40  A    between atoms: _96  and  _97
REMARK   41  A    between atoms: _96  and  _99
REMARK   42  A    between atoms: _99  and  _100
REMARK   43  A    between atoms: _105  and  _107
REMARK   44  A    between atoms: _107  and  _108
REMARK   45  A    between atoms: _107  and  _110
REMARK   46  A    between atoms: _110  and  _111
REMARK   47  A    between atoms: _111  and  _112
REMARK   48  A    between atoms: _112  and  _113
REMARK   49  A    between atoms: _123  and  _124
REMARK   50  A    between atoms: _129  and  _131
REMARK   51  A    between atoms: _131  and  _132
REMARK   52  A    between atoms: _131  and  _134
REMARK   53  A    between atoms: _134  and  _135
REMARK   54  A    between atoms: _140  and  _141
REMARK   55  A    between atoms: _143  and  _145
REMARK   56  A    between atoms: _145  and  _146
REMARK   57  A    between atoms: _145  and  _148
REMARK   58  A    between atoms: _148  and  _149
REMARK   59  A    between atoms: _154  and  _155
REMARK   60  A    between atoms: _157  and  _159
REMARK   61  A    between atoms: _159  and  _160
REMARK   62  A    between atoms: _159  and  _162
REMARK   63  A    between atoms: _165  and  _167
REMARK   64  A    between atoms: _167  and  _168
REMARK   65  A    between atoms: _167  and  _170
REMARK   66  A    between atoms: _170  and  _171
REMARK   67  A    between atoms: _177  and  _178
REMARK   68  A    between atoms: _183  and  _185
REMARK   69  A    between atoms: _185  and  _186
REMARK   70  A    between atoms: _185  and  _188
REMARK   71  A    between atoms: _188  and  _189
REMARK   72  A    between atoms: _191  and  _193
REMARK   73  A    between atoms: _193  and  _194
REMARK   74  A    between atoms: _193  and  _196
REMARK   75  A    between atoms: _196  and  _197
REMARK   76  A    between atoms: _197  and  _198
REMARK   77  A    between atoms: _201  and  _203
REMARK   78  A    between atoms: _203  and  _204
REMARK   79  A    between atoms: _203  and  _206
REMARK   80  A    between atoms: _206  and  _207
REMARK   81  A    between atoms: _212  and  _213
REMARK   82  A    between atoms: _215  and  _217
REMARK   83  A    between atoms: _217  and  _218
REMARK   84  A    between atoms: _217  and  _220
REMARK   85  A    between atoms: _220  and  _221
REMARK   86  A    between atoms: _226  and  _228
REMARK   87  A    between atoms: _228  and  _229
REMARK   88  A    between atoms: _228  and  _231
REMARK   89  A    between atoms: _231  and  _232
REMARK   90  A    between atoms: _237  and  _239
REMARK   91  A    between atoms: _239  and  _240
REMARK   92  A    between atoms: _239  and  _242
REMARK   93  A    between atoms: _242  and  _243
REMARK   94  A    between atoms: _243  and  _244
REMARK   95  A    between atoms: _246  and  _248
REMARK   96  A    between atoms: _248  and  _249
REMARK   97  A    between atoms: _248  and  _251
REMARK   98  A    between atoms: _251  and  _252
REMARK   99  A    between atoms: _257  and  _258
REMARK  100  A    between atoms: _260  and  _262
REMARK  101  A    between atoms: _262  and  _263
REMARK  102  A    between atoms: _262  and  _265
REMARK  103  A    between atoms: _265  and  _266
REMARK  104  A    between atoms: _269  and  _271
REMARK  105  A    between atoms: _271  and  _272
REMARK  106  A    between atoms: _271  and  _274
REMARK  107  A    between atoms: _274  and  _275
REMARK  108  A    between atoms: _275  and  _496
REMARK  109  A    between atoms: _276  and  _278
REMARK  110  A    between atoms: _278  and  _279
REMARK  111  A    between atoms: _278  and  _281
REMARK  112  A    between atoms: _281  and  _282
REMARK  113  A    between atoms: _285  and  _287
REMARK  114  A    between atoms: _287  and  _288
REMARK  115  A    between atoms: _287  and  _290
REMARK  116  A    between atoms: _290  and  _291
REMARK  117  A    between atoms: _296  and  _297
REMARK  118  A    between atoms: _299  and  _301
REMARK  119  A    between atoms: _301  and  _302
REMARK  120  A    between atoms: _301  and  _304
REMARK  121  A    between atoms: _304  and  _305
REMARK  122  A    between atoms: _310  and  _311
REMARK  123  A    between atoms: _313  and  _315
REMARK  124  A    between atoms: _315  and  _316
REMARK  125  A    between atoms: _315  and  _318
REMARK  126  A    between atoms: _318  and  _319
REMARK  127  A    between atoms: _319  and  _320
REMARK  128  A    between atoms: _323  and  _325
REMARK  129  A    between atoms: _325  and  _326
REMARK  130  A    between atoms: _325  and  _328
REMARK  131  A    between atoms: _328  and  _329
REMARK  132  A    between atoms: _329  and  _330
REMARK  133  A    between atoms: _330  and  _331
REMARK  134  A    between atoms: _331  and  _332
REMARK  135  A    between atoms: _336  and  _338
REMARK  136  A    between atoms: _338  and  _339
REMARK  137  A    between atoms: _338  and  _341
REMARK  138  A    between atoms: _341  and  _342
REMARK  139  A    between atoms: _347  and  _348
REMARK  140  A    between atoms: _350  and  _352
REMARK  141  A    between atoms: _352  and  _353
REMARK  142  A    between atoms: _352  and  _355
REMARK  143  A    between atoms: _355  and  _356
REMARK  144  A    between atoms: _361  and  _363
REMARK  145  A    between atoms: _363  and  _364
REMARK  146  A    between atoms: _363  and  _366
REMARK  147  A    between atoms: _366  and  _367
REMARK  148  A    between atoms: _370  and  _372
REMARK  149  A    between atoms: _372  and  _373
REMARK  150  A    between atoms: _372  and  _375
REMARK  151  A    between atoms: _375  and  _376
REMARK  152  A    between atoms: _381  and  _383
REMARK  153  A    between atoms: _383  and  _384
REMARK  154  A    between atoms: _383  and  _386
REMARK  155  A    between atoms: _386  and  _387
REMARK  156  A    between atoms: _397  and  _399
REMARK  157  A    between atoms: _399  and  _400
REMARK  158  A    between atoms: _399  and  _402
REMARK  159  A    between atoms: _402  and  _403
REMARK  160  A    between atoms: _409  and  _411
REMARK  161  A    between atoms: _411  and  _412
REMARK  162  A    between atoms: _411  and  _414
REMARK  163  A    between atoms: _414  and  _415
REMARK  164  A    between atoms: _418  and  _420
REMARK  165  A    between atoms: _420  and  _421
REMARK  166  A    between atoms: _420  and  _423
REMARK  167  A    between atoms: _423  and  _424
REMARK  168  A    between atoms: _424  and  _425
REMARK  169  A    between atoms: _425  and  _426
REMARK  170  A    between atoms: _435  and  _437
REMARK  171  A    between atoms: _437  and  _438
REMARK  172  A    between atoms: _437  and  _440
REMARK  173  A    between atoms: _440  and  _441
REMARK  174  A    between atoms: _446  and  _448
REMARK  175  A    between atoms: _448  and  _449
REMARK  176  A    between atoms: _448  and  _451
REMARK  177  A    between atoms: _451  and  _452
REMARK  178  A    between atoms: _452  and  _453
REMARK  179  A    between atoms: _453  and  _454
REMARK  180  A    between atoms: _463  and  _465
REMARK  181  A    between atoms: _465  and  _466
REMARK  182  A    between atoms: _469  and  _471
REMARK  183  A    between atoms: _471  and  _472
REMARK  184  A    between atoms: _474  and  _476
REMARK  185  A    between atoms: _476  and  _477
REMARK  186  A    between atoms: _476  and  _479
REMARK  187  A    between atoms: _479  and  _480
REMARK  188  A    between atoms: _490  and  _492
REMARK  189  A    between atoms: _492  and  _493
REMARK  190  A    between atoms: _492  and  _495
REMARK  191  A    between atoms: _495  and  _496
REMARK  192  A    between atoms: _497  and  _499
REMARK  193  A    between atoms: _499  and  _500
REMARK  194  A    between atoms: _503  and  _505
REMARK  195  A    between atoms: _505  and  _506
REMARK  196  A    between atoms: _505  and  _508
REMARK  197  A    between atoms: _508  and  _509
REMARK  198  A    between atoms: _512  and  _514
REMARK  199  A    between atoms: _514  and  _515
REMARK  200  A    between atoms: _514  and  _517
REMARK  201  A    between atoms: _517  and  _518
REMARK  202  A    between atoms: _523  and  _524
REMARK  203  A    between atoms: _526  and  _528
REMARK  204  A    between atoms: _528  and  _529
REMARK  205  A    between atoms: _528  and  _531
REMARK  206  A    between atoms: _531  and  _532
REMARK  207  A    between atoms: _534  and  _536
REMARK  208  A    between atoms: _536  and  _537
REMARK  209  A    between atoms: _536  and  _539
REMARK  210  A    between atoms: _539  and  _540
REMARK  211  A    between atoms: _546  and  _548
REMARK  212  A    between atoms: _548  and  _549
REMARK  213  A    between atoms: _548  and  _551
REMARK  214  A    between atoms: _551  and  _552
REMARK  215  A    between atoms: _555  and  _557
REMARK  216  A    between atoms: _557  and  _558
REMARK  217  A    between atoms: _557  and  _560
REMARK  218  A    between atoms: _560  and  _561
REMARK  219  A    between atoms: _563  and  _565
REMARK  220  A    between atoms: _565  and  _566
REMARK  221  A    between atoms: _565  and  _568
REMARK  222  A    between atoms: _568  and  _569
REMARK  223  A    between atoms: _574  and  _576
REMARK  224  A    between atoms: _576  and  _577
REMARK  225  A    between atoms: _576  and  _579
REMARK  226  A    between atoms: _579  and  _580
REMARK  227  A    between atoms: _585  and  _587
REMARK  228  A    between atoms: _587  and  _588
REMARK  229  A    between atoms: _587  and  _590
REMARK  230  A    between atoms: _590  and  _591
REMARK  231  A    between atoms: _594  and  _596
REMARK  232  A    between atoms: _596  and  _597
REMARK  233  A    between atoms: _600  and  _602
REMARK  234  A    between atoms: _602  and  _603
REMARK  235  A    between atoms: _602  and  _605
REMARK  236  A    between atoms: _605  and  _606
REMARK  237  A    between atoms: _611  and  _612
REMARK  238  A    between atoms: _614  and  _616
REMARK  239  A    between atoms: _616  and  _617
REMARK  240  A    between atoms: _616  and  _619
REMARK  241  A    between atoms: _619  and  _620
REMARK  242  A    between atoms: _625  and  _626
REMARK  243  A    between atoms: _628  and  _630
REMARK  244  A    between atoms: _630  and  _631
REMARK  245  A    between atoms: _630  and  _633
REMARK  246  A    between atoms: _636  and  _638
REMARK  247  A    between atoms: _638  and  _639
REMARK  248  A    between atoms: _638  and  _641
REMARK  249  A    between atoms: _641  and  _642
REMARK  250  A    between atoms: _647  and  _649
REMARK  251  A    between atoms: _649  and  _650
REMARK  252  A    between atoms: _653  and  _655
REMARK  253  A    between atoms: _655  and  _656
REMARK  254  A    between atoms: _655  and  _658
REMARK  255  A    between atoms: _658  and  _659
REMARK  256  A    between atoms: _659  and  _660
REMARK  257  A    between atoms: _660  and  _661
REMARK  258  A    between atoms: _670  and  _672
REMARK  259  A    between atoms: _672  and  _673
REMARK  260  A    between atoms: _672  and  _675
REMARK  261  A    between atoms: _675  and  _676
REMARK  262  A    between atoms: _679  and  _681
REMARK  263  A    between atoms: _681  and  _682
REMARK  264  A    between atoms: _681  and  _684
REMARK  265  A    between atoms: _684  and  _685
REMARK  266  A    between atoms: _688  and  _690
REMARK  267  A    between atoms: _690  and  _691
REMARK  268  A    between atoms: _690  and  _693
REMARK  269  A    between atoms: _693  and  _694
REMARK                            x       y       z     vdW  Elec       q    Type
REMARK                         _______ _______ _______ _____ _____    ______ ____
ROOT
ATOM      1  O   HOH     1      -9.748  21.323   9.092  0.00  0.00    +0.000 OA
ENDROOT
TORSDOF 0
REMARK  Name = ../refined-set-2016/1b3f/1b3f_pocket.pdb
REMARK  269 active torsions:
REMARK  status: ('A' for Active; 'I' for Inactive)
REMARK    1  A    between atoms: _1  and  _3
REMARK    2  A    between atoms: _3  and  _4
REMARK    3  A    between atoms: _3  and  _6
REMARK    4  A    between atoms: _6  and  _7
REMARK    5  A    between atoms: _12  and  _14
REMARK    6  A    between atoms: _14  and  _15
REMARK    7  A    between atoms: _17  and  _19
REMARK    8  A    between atoms: _19  and  _20
REMARK    9  A    between atoms: _19  and  _22
REMARK   10  A    between atoms: _22  and  _23
REMARK   11  A    between atoms: _25  and  _27
REMARK   12  A    between atoms: _27  and  _28
REMARK   13  A    between atoms: _27  and  _30
REMARK   14  A    between atoms: _30  and  _31
REMARK   15  A    between atoms: _31  and  _32
REMARK   16  A    between atoms: _37  and  _39
REMARK   17  A    between atoms: _39  and  _40
REMARK   18  A    between atoms: _39  and  _42
REMARK   19  A    between atoms: _42  and  _43
REMARK   20  A    between atoms: _46  and  _48
REMARK   21  A    between atoms: _48  and  _49
REMARK   22  A    between atoms: _48  and  _51
REMARK   23  A    between atoms: _52  and  _53
REMARK   24  A    between atoms: _56  and  _58
REMARK   25  A    between atoms: _58  and  _59
REMARK   26  A    between atoms: _61  and  _63
REMARK   27  A    between atoms: _63  and  _64
REMARK   28  A    between atoms: _63  and  _66
REMARK   29  A    between atoms: _70  and  _71
REMARK   30  A    between atoms: _76  and  _78
REMARK   31  A    between atoms: _78  and  _79
REMARK   32  A    between atoms: _78  and  _81
REMARK   33  A    between atoms: _81  and  _82
REMARK   34  A    between atoms: _82  and  _83
REMARK   35  A    between atoms: _86  and  _88
REMARK   36  A    between atoms: _88  and  _89
REMARK   37  A    between atoms: _88  and  _91
REMARK   38  A    between atoms: _91  and  _92
REMARK   39  A    between atoms: _94  and  _96
REMARK   40  A    between atoms: _96  and  _97
REMARK   41  A    between atoms: _96  and  _99
REMARK   42  A    between atoms: _99  and  _100
REMARK   43  A    between atoms: _105  and  _107
REMARK   44  A    between atoms: _107  and  _108
REMARK   45  A    between atoms: _107  and  _110
REMARK   46  A    between atoms: _110  and  _111
REMARK   47  A    between atoms: _111  and  _112
REMARK   48  A    between atoms: _112  and  _113
REMARK   49  A    between atoms: _123  and  _124
REMARK   50  A    between atoms: _129  and  _131
REMARK   51  A    between atoms: _131  and  _132
REMARK   52  A    between atoms: _131  and  _134
REMARK   53  A    between atoms: _134  and  _135
REMARK   54  A    between atoms: _140  and  _141
REMARK   55  A    between atoms: _143  and  _145
REMARK   56  A    between atoms: _145  and  _146
REMARK   57  A    between atoms: _145  and  _148
REMARK   58  A    between atoms: _148  and  _149
REMARK   59  A    between atoms: _154  and  _155
REMARK   60  A    between atoms: _157  and  _159
REMARK   61  A    between atoms: _159  and  _160
REMARK   62  A    between atoms: _159  and  _162
REMARK   63  A    between atoms: _165  and  _167
REMARK   64  A    between atoms: _167  and  _168
REMARK   65  A    between atoms: _167  and  _170
REMARK   66  A    between atoms: _170  and  _171
REMARK   67  A    between atoms: _177  and  _178
REMARK   68  A    between atoms: _183  and  _185
REMARK   69  A    between atoms: _185  and  _186
REMARK   70  A    between atoms: _185  and  _188
REMARK   71  A    between atoms: _188  and  _189
REMARK   72  A    between atoms: _191  and  _193
REMARK   73  A    between atoms: _193  and  _194
REMARK   74  A    between atoms: _193  and  _196
REMARK   75  A    between atoms: _196  and  _197
REMARK   76  A    between atoms: _197  and  _198
REMARK   77  A    between atoms: _201  and  _203
REMARK   78  A    between atoms: _203  and  _204
REMARK   79  A    between atoms: _203  and  _206
REMARK   80  A    between atoms: _206  and  _207
REMARK   81  A    between atoms: _212  and  _213
REMARK   82  A    between atoms: _215  and  _217
REMARK   83  A    between atoms: _217  and  _218
REMARK   84  A    between atoms: _217  and  _220
REMARK   85  A    between atoms: _220  and  _221
REMARK   86  A    between atoms: _226  and  _228
REMARK   87  A    between atoms: _228  and  _229
REMARK   88  A    between atoms: _228  and  _231
REMARK   89  A    between atoms: _231  and  _232
REMARK   90  A    between atoms: _237  and  _239
REMARK   91  A    between atoms: _239  and  _240
REMARK   92  A    between atoms: _239  and  _242
REMARK   93  A    between atoms: _242  and  _243
REMARK   94  A    between atoms: _243  and  _244
REMARK   95  A    between atoms: _246  and  _248
REMARK   96  A    between atoms: _248  and  _249
REMARK   97  A    between atoms: _248  and  _251
REMARK   98  A    between atoms: _251  and  _252
REMARK   99  A    between atoms: _257  and  _258
REMARK  100  A    between atoms: _260  and  _262
REMARK  101  A    between atoms: _262  and  _263
REMARK  102  A    between atoms: _262  and  _265
REMARK  103  A    between atoms: _265  and  _266
REMARK  104  A    between atoms: _269  and  _271
REMARK  105  A    between atoms: _271  and  _272
REMARK  106  A    between atoms: _271  and  _274
REMARK  107  A    between atoms: _274  and  _275
REMARK  108  A    between atoms: _275  and  _496
REMARK  109  A    between atoms: _276  and  _278
REMARK  110  A    between atoms: _278  and  _279
REMARK  111  A    between atoms: _278  and  _281
REMARK  112  A    between atoms: _281  and  _282
REMARK  113  A    between atoms: _285  and  _287
REMARK  114  A    between atoms: _287  and  _288
REMARK  115  A    between atoms: _287  and  _290
REMARK  116  A    between atoms: _290  and  _291
REMARK  117  A    between atoms: _296  and  _297
REMARK  118  A    between atoms: _299  and  _301
REMARK  119  A    between atoms: _301  and  _302
REMARK  120  A    between atoms: _301  and  _304
REMARK  121  A    between atoms: _304  and  _305
REMARK  122  A    between atoms: _310  and  _311
REMARK  123  A    between atoms: _313  and  _315
REMARK  124  A    between atoms: _315  and  _316
REMARK  125  A    between atoms: _315  and  _318
REMARK  126  A    between atoms: _318  and  _319
REMARK  127  A    between atoms: _319  and  _320
REMARK  128  A    between atoms: _323  and  _325
REMARK  129  A    between atoms: _325  and  _326
REMARK  130  A    between atoms: _325  and  _328
REMARK  131  A    between atoms: _328  and  _329
REMARK  132  A    between atoms: _329  and  _330
REMARK  133  A    between atoms: _330  and  _331
REMARK  134  A    between atoms: _331  and  _332
REMARK  135  A    between atoms: _336  and  _338
REMARK  136  A    between atoms: _338  and  _339
REMARK  137  A    between atoms: _338  and  _341
REMARK  138  A    between atoms: _341  and  _342
REMARK  139  A    between atoms: _347  and  _348
REMARK  140  A    between atoms: _350  and  _352
REMARK  141  A    between atoms: _352  and  _353
REMARK  142  A    between atoms: _352  and  _355
REMARK  143  A    between atoms: _355  and  _356
REMARK  144  A    between atoms: _361  and  _363
REMARK  145  A    between atoms: _363  and  _364
REMARK  146  A    between atoms: _363  and  _366
REMARK  147  A    between atoms: _366  and  _367
REMARK  148  A    between atoms: _370  and  _372
REMARK  149  A    between atoms: _372  and  _373
REMARK  150  A    between atoms: _372  and  _375
REMARK  151  A    between atoms: _375  and  _376
REMARK  152  A    between atoms: _381  and  _383
REMARK  153  A    between atoms: _383  and  _384
REMARK  154  A    between atoms: _383  and  _386
REMARK  155  A    between atoms: _386  and  _387
REMARK  156  A    between atoms: _397  and  _399
REMARK  157  A    between atoms: _399  and  _400
REMARK  158  A    between atoms: _399  and  _402
REMARK  159  A    between atoms: _402  and  _403
REMARK  160  A    between atoms: _409  and  _411
REMARK  161  A    between atoms: _411  and  _412
REMARK  162  A    between atoms: _411  and  _414
REMARK  163  A    between atoms: _414  and  _415
REMARK  164  A    between atoms: _418  and  _420
REMARK  165  A    between atoms: _420  and  _421
REMARK  166  A    between atoms: _420  and  _423
REMARK  167  A    between atoms: _423  and  _424
REMARK  168  A    between atoms: _424  and  _425
REMARK  169  A    between atoms: _425  and  _426
REMARK  170  A    between atoms: _435  and  _437
REMARK  171  A    between atoms: _437  and  _438
REMARK  172  A    between atoms: _437  and  _440
REMARK  173  A    between atoms: _440  and  _441
REMARK  174  A    between atoms: _446  and  _448
REMARK  175  A    between atoms: _448  and  _449
REMARK  176  A    between atoms: _448  and  _451
REMARK  177  A    between atoms: _451  and  _452
REMARK  178  A    between atoms: _452  and  _453
REMARK  179  A    between atoms: _453  and  _454
REMARK  180  A    between atoms: _463  and  _465
REMARK  181  A    between atoms: _465  and  _466
REMARK  182  A    between atoms: _469  and  _471
REMARK  183  A    between atoms: _471  and  _472
REMARK  184  A    between atoms: _474  and  _476
REMARK  185  A    between atoms: _476  and  _477
REMARK  186  A    between atoms: _476  and  _479
REMARK  187  A    between atoms: _479  and  _480
REMARK  188  A    between atoms: _490  and  _492
REMARK  189  A    between atoms: _492  and  _493
REMARK  190  A    between atoms: _492  and  _495
REMARK  191  A    between atoms: _495  and  _496
REMARK  192  A    between atoms: _497  and  _499
REMARK  193  A    between atoms: _499  and  _500
REMARK  194  A    between atoms: _503  and  _505
REMARK  195  A    between atoms: _505  and  _506
REMARK  196  A    between atoms: _505  and  _508
REMARK  197  A    between atoms: _508  and  _509
REMARK  198  A    between atoms: _512  and  _514
REMARK  199  A    between atoms: _514  and  _515
REMARK  200  A    between atoms: _514  and  _517
REMARK  201  A    between atoms: _517  and  _518
REMARK  202  A    between atoms: _523  and  _524
REMARK  203  A    between atoms: _526  and  _528
REMARK  204  A    between atoms: _528  and  _529
REMARK  205  A    between atoms: _528  and  _531
REMARK  206  A    between atoms: _531  and  _532
REMARK  207  A    between atoms: _534  and  _536
REMARK  208  A    between atoms: _536  and  _537
REMARK  209  A    between atoms: _536  and  _539
REMARK  210  A    between atoms: _539  and  _540
REMARK  211  A    between atoms: _546  and  _548
REMARK  212  A    between atoms: _548  and  _549
REMARK  213  A    between atoms: _548  and  _551
REMARK  214  A    between atoms: _551  and  _552
REMARK  215  A    between atoms: _555  and  _557
REMARK  216  A    between atoms: _557  and  _558
REMARK  217  A    between atoms: _557  and  _560
REMARK  218  A    between atoms: _560  and  _561
REMARK  219  A    between atoms: _563  and  _565
REMARK  220  A    between atoms: _565  and  _566
REMARK  221  A    between atoms: _565  and  _568
REMARK  222  A    between atoms: _568  and  _569
REMARK  223  A    between atoms: _574  and  _576
REMARK  224  A    between atoms: _576  and  _577
REMARK  225  A    between atoms: _576  and  _579
REMARK  226  A    between atoms: _579  and  _580
REMARK  227  A    between atoms: _585  and  _587
REMARK  228  A    between atoms: _587  and  _588
REMARK  229  A    between atoms: _587  and  _590
REMARK  230  A    between atoms: _590  and  _591
REMARK  231  A    between atoms: _594  and  _596
REMARK  232  A    between atoms: _596  and  _597
REMARK  233  A    between atoms: _600  and  _602
REMARK  234  A    between atoms: _602  and  _603
REMARK  235  A    between atoms: _602  and  _605
REMARK  236  A    between atoms: _605  and  _606
REMARK  237  A    between atoms: _611  and  _612
REMARK  238  A    between atoms: _614  and  _616
REMARK  239  A    between atoms: _616  and  _617
REMARK  240  A    between atoms: _616  and  _619
REMARK  241  A    between atoms: _619  and  _620
REMARK  242  A    between atoms: _625  and  _626
REMARK  243  A    between atoms: _628  and  _630
REMARK  244  A    between atoms: _630  and  _631
REMARK  245  A    between atoms: _630  and  _633
REMARK  246  A    between atoms: _636  and  _638
REMARK  247  A    between atoms: _638  and  _639
REMARK  248  A    between atoms: _638  and  _641
REMARK  249  A    between atoms: _641  and  _642
REMARK  250  A    between atoms: _647  and  _649
REMARK  251  A    between atoms: _649  and  _650
REMARK  252  A    between atoms: _653  and  _655
REMARK  253  A    between atoms: _655  and  _656
REMARK  254  A    between atoms: _655  and  _658
REMARK  255  A    between atoms: _658  and  _659
REMARK  256  A    between atoms: _659  and  _660
REMARK  257  A    between atoms: _660  and  _661
REMARK  258  A    between atoms: _670  and  _672
REMARK  259  A    between atoms: _672  and  _673
REMARK  260  A    between atoms: _672  and  _675
REMARK  261  A    between atoms: _675  and  _676
REMARK  262  A    between atoms: _679  and  _681
REMARK  263  A    between atoms: _681  and  _682
REMARK  264  A    between atoms: _681  and  _684
REMARK  265  A    between atoms: _684  and  _685
REMARK  266  A    between atoms: _688  and  _690
REMARK  267  A    between atoms: _690  and  _691
REMARK  268  A    between atoms: _690  and  _693
REMARK  269  A    between atoms: _693  and  _694
REMARK                            x       y       z     vdW  Elec       q    Type
REMARK                         _______ _______ _______ _____ _____    ______ ____
ROOT
ATOM      1  O   HOH     1      -7.969  23.472   9.796  0.00  0.00    +0.000 OA
ENDROOT
TORSDOF 0
REMARK  Name = ../refined-set-2016/1b3f/1b3f_pocket.pdb
REMARK  269 active torsions:
REMARK  status: ('A' for Active; 'I' for Inactive)
REMARK    1  A    between atoms: _1  and  _3
REMARK    2  A    between atoms: _3  and  _4
REMARK    3  A    between atoms: _3  and  _6
REMARK    4  A    between atoms: _6  and  _7
REMARK    5  A    between atoms: _12  and  _14
REMARK    6  A    between atoms: _14  and  _15
REMARK    7  A    between atoms: _17  and  _19
REMARK    8  A    between atoms: _19  and  _20
REMARK    9  A    between atoms: _19  and  _22
REMARK   10  A    between atoms: _22  and  _23
REMARK   11  A    between atoms: _25  and  _27
REMARK   12  A    between atoms: _27  and  _28
REMARK   13  A    between atoms: _27  and  _30
REMARK   14  A    between atoms: _30  and  _31
REMARK   15  A    between atoms: _31  and  _32
REMARK   16  A    between atoms: _37  and  _39
REMARK   17  A    between atoms: _39  and  _40
REMARK   18  A    between atoms: _39  and  _42
REMARK   19  A    between atoms: _42  and  _43
REMARK   20  A    between atoms: _46  and  _48
REMARK   21  A    between atoms: _48  and  _49
REMARK   22  A    between atoms: _48  and  _51
REMARK   23  A    between atoms: _52  and  _53
REMARK   24  A    between atoms: _56  and  _58
REMARK   25  A    between atoms: _58  and  _59
REMARK   26  A    between atoms: _61  and  _63
REMARK   27  A    between atoms: _63  and  _64
REMARK   28  A    between atoms: _63  and  _66
REMARK   29  A    between atoms: _70  and  _71
REMARK   30  A    between atoms: _76  and  _78
REMARK   31  A    between atoms: _78  and  _79
REMARK   32  A    between atoms: _78  and  _81
REMARK   33  A    between atoms: _81  and  _82
REMARK   34  A    between atoms: _82  and  _83
REMARK   35  A    between atoms: _86  and  _88
REMARK   36  A    between atoms: _88  and  _89
REMARK   37  A    between atoms: _88  and  _91
REMARK   38  A    between atoms: _91  and  _92
REMARK   39  A    between atoms: _94  and  _96
REMARK   40  A    between atoms: _96  and  _97
REMARK   41  A    between atoms: _96  and  _99
REMARK   42  A    between atoms: _99  and  _100
REMARK   43  A    between atoms: _105  and  _107
REMARK   44  A    between atoms: _107  and  _108
REMARK   45  A    between atoms: _107  and  _110
REMARK   46  A    between atoms: _110  and  _111
REMARK   47  A    between atoms: _111  and  _112
REMARK   48  A    between atoms: _112  and  _113
REMARK   49  A    between atoms: _123  and  _124
REMARK   50  A    between atoms: _129  and  _131
REMARK   51  A    between atoms: _131  and  _132
REMARK   52  A    between atoms: _131  and  _134
REMARK   53  A    between atoms: _134  and  _135
REMARK   54  A    between atoms: _140  and  _141
REMARK   55  A    between atoms: _143  and  _145
REMARK   56  A    between atoms: _145  and  _146
REMARK   57  A    between atoms: _145  and  _148
REMARK   58  A    between atoms: _148  and  _149
REMARK   59  A    between atoms: _154  and  _155
REMARK   60  A    between atoms: _157  and  _159
REMARK   61  A    between atoms: _159  and  _160
REMARK   62  A    between atoms: _159  and  _162
REMARK   63  A    between atoms: _165  and  _167
REMARK   64  A    between atoms: _167  and  _168
REMARK   65  A    between atoms: _167  and  _170
REMARK   66  A    between atoms: _170  and  _171
REMARK   67  A    between atoms: _177  and  _178
REMARK   68  A    between atoms: _183  and  _185
REMARK   69  A    between atoms: _185  and  _186
REMARK   70  A    between atoms: _185  and  _188
REMARK   71  A    between atoms: _188  and  _189
REMARK   72  A    between atoms: _191  and  _193
REMARK   73  A    between atoms: _193  and  _194
REMARK   74  A    between atoms: _193  and  _196
REMARK   75  A    between atoms: _196  and  _197
REMARK   76  A    between atoms: _197  and  _198
REMARK   77  A    between atoms: _201  and  _203
REMARK   78  A    between atoms: _203  and  _204
REMARK   79  A    between atoms: _203  and  _206
REMARK   80  A    between atoms: _206  and  _207
REMARK   81  A    between atoms: _212  and  _213
REMARK   82  A    between atoms: _215  and  _217
REMARK   83  A    between atoms: _217  and  _218
REMARK   84  A    between atoms: _217  and  _220
REMARK   85  A    between atoms: _220  and  _221
REMARK   86  A    between atoms: _226  and  _228
REMARK   87  A    between atoms: _228  and  _229
REMARK   88  A    between atoms: _228  and  _231
REMARK   89  A    between atoms: _231  and  _232
REMARK   90  A    between atoms: _237  and  _239
REMARK   91  A    between atoms: _239  and  _240
REMARK   92  A    between atoms: _239  and  _242
REMARK   93  A    between atoms: _242  and  _243
REMARK   94  A    between atoms: _243  and  _244
REMARK   95  A    between atoms: _246  and  _248
REMARK   96  A    between atoms: _248  and  _249
REMARK   97  A    between atoms: _248  and  _251
REMARK   98  A    between atoms: _251  and  _252
REMARK   99  A    between atoms: _257  and  _258
REMARK  100  A    between atoms: _260  and  _262
REMARK  101  A    between atoms: _262  and  _263
REMARK  102  A    between atoms: _262  and  _265
REMARK  103  A    between atoms: _265  and  _266
REMARK  104  A    between atoms: _269  and  _271
REMARK  105  A    between atoms: _271  and  _272
REMARK  106  A    between atoms: _271  and  _274
REMARK  107  A    between atoms: _274  and  _275
REMARK  108  A    between atoms: _275  and  _496
REMARK  109  A    between atoms: _276  and  _278
REMARK  110  A    between atoms: _278  and  _279
REMARK  111  A    between atoms: _278  and  _281
REMARK  112  A    between atoms: _281  and  _282
REMARK  113  A    between atoms: _285  and  _287
REMARK  114  A    between atoms: _287  and  _288
REMARK  115  A    between atoms: _287  and  _290
REMARK  116  A    between atoms: _290  and  _291
REMARK  117  A    between atoms: _296  and  _297
REMARK  118  A    between atoms: _299  and  _301
REMARK  119  A    between atoms: _301  and  _302
REMARK  120  A    between atoms: _301  and  _304
REMARK  121  A    between atoms: _304  and  _305
REMARK  122  A    between atoms: _310  and  _311
REMARK  123  A    between atoms: _313  and  _315
REMARK  124  A    between atoms: _315  and  _316
REMARK  125  A    between atoms: _315  and  _318
REMARK  126  A    between atoms: _318  and  _319
REMARK  127  A    between atoms: _319  and  _320
REMARK  128  A    between atoms: _323  and  _325
REMARK  129  A    between atoms: _325  and  _326
REMARK  130  A    between atoms: _325  and  _328
REMARK  131  A    between atoms: _328  and  _329
REMARK  132  A    between atoms: _329  and  _330
REMARK  133  A    between atoms: _330  and  _331
REMARK  134  A    between atoms: _331  and  _332
REMARK  135  A    between atoms: _336  and  _338
REMARK  136  A    between atoms: _338  and  _339
REMARK  137  A    between atoms: _338  and  _341
REMARK  138  A    between atoms: _341  and  _342
REMARK  139  A    between atoms: _347  and  _348
REMARK  140  A    between atoms: _350  and  _352
REMARK  141  A    between atoms: _352  and  _353
REMARK  142  A    between atoms: _352  and  _355
REMARK  143  A    between atoms: _355  and  _356
REMARK  144  A    between atoms: _361  and  _363
REMARK  145  A    between atoms: _363  and  _364
REMARK  146  A    between atoms: _363  and  _366
REMARK  147  A    between atoms: _366  and  _367
REMARK  148  A    between atoms: _370  and  _372
REMARK  149  A    between atoms: _372  and  _373
REMARK  150  A    between atoms: _372  and  _375
REMARK  151  A    between atoms: _375  and  _376
REMARK  152  A    between atoms: _381  and  _383
REMARK  153  A    between atoms: _383  and  _384
REMARK  154  A    between atoms: _383  and  _386
REMARK  155  A    between atoms: _386  and  _387
REMARK  156  A    between atoms: _397  and  _399
REMARK  157  A    between atoms: _399  and  _400
REMARK  158  A    between atoms: _399  and  _402
REMARK  159  A    between atoms: _402  and  _403
REMARK  160  A    between atoms: _409  and  _411
REMARK  161  A    between atoms: _411  and  _412
REMARK  162  A    between atoms: _411  and  _414
REMARK  163  A    between atoms: _414  and  _415
REMARK  164  A    between atoms: _418  and  _420
REMARK  165  A    between atoms: _420  and  _421
REMARK  166  A    between atoms: _420  and  _423
REMARK  167  A    between atoms: _423  and  _424
REMARK  168  A    between atoms: _424  and  _425
REMARK  169  A    between atoms: _425  and  _426
REMARK  170  A    between atoms: _435  and  _437
REMARK  171  A    between atoms: _437  and  _438
REMARK  172  A    between atoms: _437  and  _440
REMARK  173  A    between atoms: _440  and  _441
REMARK  174  A    between atoms: _446  and  _448
REMARK  175  A    between atoms: _448  and  _449
REMARK  176  A    between atoms: _448  and  _451
REMARK  177  A    between atoms: _451  and  _452
REMARK  178  A    between atoms: _452  and  _453
REMARK  179  A    between atoms: _453  and  _454
REMARK  180  A    between atoms: _463  and  _465
REMARK  181  A    between atoms: _465  and  _466
REMARK  182  A    between atoms: _469  and  _471
REMARK  183  A    between atoms: _471  and  _472
REMARK  184  A    between atoms: _474  and  _476
REMARK  185  A    between atoms: _476  and  _477
REMARK  186  A    between atoms: _476  and  _479
REMARK  187  A    between atoms: _479  and  _480
REMARK  188  A    between atoms: _490  and  _492
REMARK  189  A    between atoms: _492  and  _493
REMARK  190  A    between atoms: _492  and  _495
REMARK  191  A    between atoms: _495  and  _496
REMARK  192  A    between atoms: _497  and  _499
REMARK  193  A    between atoms: _499  and  _500
REMARK  194  A    between atoms: _503  and  _505
REMARK  195  A    between atoms: _505  and  _506
REMARK  196  A    between atoms: _505  and  _508
REMARK  197  A    between atoms: _508  and  _509
REMARK  198  A    between atoms: _512  and  _514
REMARK  199  A    between atoms: _514  and  _515
REMARK  200  A    between atoms: _514  and  _517
REMARK  201  A    between atoms: _517  and  _518
REMARK  202  A    between atoms: _523  and  _524
REMARK  203  A    between atoms: _526  and  _528
REMARK  204  A    between atoms: _528  and  _529
REMARK  205  A    between atoms: _528  and  _531
REMARK  206  A    between atoms: _531  and  _532
REMARK  207  A    between atoms: _534  and  _536
REMARK  208  A    between atoms: _536  and  _537
REMARK  209  A    between atoms: _536  and  _539
REMARK  210  A    between atoms: _539  and  _540
REMARK  211  A    between atoms: _546  and  _548
REMARK  212  A    between atoms: _548  and  _549
REMARK  213  A    between atoms: _548  and  _551
REMARK  214  A    between atoms: _551  and  _552
REMARK  215  A    between atoms: _555  and  _557
REMARK  216  A    between atoms: _557  and  _558
REMARK  217  A    between atoms: _557  and  _560
REMARK  218  A    between atoms: _560  and  _561
REMARK  219  A    between atoms: _563  and  _565
REMARK  220  A    between atoms: _565  and  _566
REMARK  221  A    between atoms: _565  and  _568
REMARK  222  A    between atoms: _568  and  _569
REMARK  223  A    between atoms: _574  and  _576
REMARK  224  A    between atoms: _576  and  _577
REMARK  225  A    between atoms: _576  and  _579
REMARK  226  A    between atoms: _579  and  _580
REMARK  227  A    between atoms: _585  and  _587
REMARK  228  A    between atoms: _587  and  _588
REMARK  229  A    between atoms: _587  and  _590
REMARK  230  A    between atoms: _590  and  _591
REMARK  231  A    between atoms: _594  and  _596
REMARK  232  A    between atoms: _596  and  _597
REMARK  233  A    between atoms: _600  and  _602
REMARK  234  A    between atoms: _602  and  _603
REMARK  235  A    between atoms: _602  and  _605
REMARK  236  A    between atoms: _605  and  _606
REMARK  237  A    between atoms: _611  and  _612
REMARK  238  A    between atoms: _614  and  _616
REMARK  239  A    between atoms: _616  and  _617
REMARK  240  A    between atoms: _616  and  _619
REMARK  241  A    between atoms: _619  and  _620
REMARK  242  A    between atoms: _625  and  _626
REMARK  243  A    between atoms: _628  and  _630
REMARK  244  A    between atoms: _630  and  _631
REMARK  245  A    between atoms: _630  and  _633
REMARK  246  A    between atoms: _636  and  _638
REMARK  247  A    between atoms: _638  and  _639
REMARK  248  A    between atoms: _638  and  _641
REMARK  249  A    between atoms: _641  and  _642
REMARK  250  A    between atoms: _647  and  _649
REMARK  251  A    between atoms: _649  and  _650
REMARK  252  A    between atoms: _653  and  _655
REMARK  253  A    between atoms: _655  and  _656
REMARK  254  A    between atoms: _655  and  _658
REMARK  255  A    between atoms: _658  and  _659
REMARK  256  A    between atoms: _659  and  _660
REMARK  257  A    between atoms: _660  and  _661
REMARK  258  A    between atoms: _670  and  _672
REMARK  259  A    between atoms: _672  and  _673
REMARK  260  A    between atoms: _672  and  _675
REMARK  261  A    between atoms: _675  and  _676
REMARK  262  A    between atoms: _679  and  _681
REMARK  263  A    between atoms: _681  and  _682
REMARK  264  A    between atoms: _681  and  _684
REMARK  265  A    between atoms: _684  and  _685
REMARK  266  A    between atoms: _688  and  _690
REMARK  267  A    between atoms: _690  and  _691
REMARK  268  A    between atoms: _690  and  _693
REMARK  269  A    between atoms: _693  and  _694
REMARK                            x       y       z     vdW  Elec       q    Type
REMARK                         _______ _______ _______ _____ _____    ______ ____
ROOT
ATOM      1  O   HOH     1      -0.222  15.292   5.092  0.00  0.00    +0.000 OA
ENDROOT
TORSDOF 0
REMARK  Name = ../refined-set-2016/1b3f/1b3f_pocket.pdb
REMARK  269 active torsions:
REMARK  status: ('A' for Active; 'I' for Inactive)
REMARK    1  A    between atoms: _1  and  _3
REMARK    2  A    between atoms: _3  and  _4
REMARK    3  A    between atoms: _3  and  _6
REMARK    4  A    between atoms: _6  and  _7
REMARK    5  A    between atoms: _12  and  _14
REMARK    6  A    between atoms: _14  and  _15
REMARK    7  A    between atoms: _17  and  _19
REMARK    8  A    between atoms: _19  and  _20
REMARK    9  A    between atoms: _19  and  _22
REMARK   10  A    between atoms: _22  and  _23
REMARK   11  A    between atoms: _25  and  _27
REMARK   12  A    between atoms: _27  and  _28
REMARK   13  A    between atoms: _27  and  _30
REMARK   14  A    between atoms: _30  and  _31
REMARK   15  A    between atoms: _31  and  _32
REMARK   16  A    between atoms: _37  and  _39
REMARK   17  A    between atoms: _39  and  _40
REMARK   18  A    between atoms: _39  and  _42
REMARK   19  A    between atoms: _42  and  _43
REMARK   20  A    between atoms: _46  and  _48
REMARK   21  A    between atoms: _48  and  _49
REMARK   22  A    between atoms: _48  and  _51
REMARK   23  A    between atoms: _52  and  _53
REMARK   24  A    between atoms: _56  and  _58
REMARK   25  A    between atoms: _58  and  _59
REMARK   26  A    between atoms: _61  and  _63
REMARK   27  A    between atoms: _63  and  _64
REMARK   28  A    between atoms: _63  and  _66
REMARK   29  A    between atoms: _70  and  _71
REMARK   30  A    between atoms: _76  and  _78
REMARK   31  A    between atoms: _78  and  _79
REMARK   32  A    between atoms: _78  and  _81
REMARK   33  A    between atoms: _81  and  _82
REMARK   34  A    between atoms: _82  and  _83
REMARK   35  A    between atoms: _86  and  _88
REMARK   36  A    between atoms: _88  and  _89
REMARK   37  A    between atoms: _88  and  _91
REMARK   38  A    between atoms: _91  and  _92
REMARK   39  A    between atoms: _94  and  _96
REMARK   40  A    between atoms: _96  and  _97
REMARK   41  A    between atoms: _96  and  _99
REMARK   42  A    between atoms: _99  and  _100
REMARK   43  A    between atoms: _105  and  _107
REMARK   44  A    between atoms: _107  and  _108
REMARK   45  A    between atoms: _107  and  _110
REMARK   46  A    between atoms: _110  and  _111
REMARK   47  A    between atoms: _111  and  _112
REMARK   48  A    between atoms: _112  and  _113
REMARK   49  A    between atoms: _123  and  _124
REMARK   50  A    between atoms: _129  and  _131
REMARK   51  A    between atoms: _131  and  _132
REMARK   52  A    between atoms: _131  and  _134
REMARK   53  A    between atoms: _134  and  _135
REMARK   54  A    between atoms: _140  and  _141
REMARK   55  A    between atoms: _143  and  _145
REMARK   56  A    between atoms: _145  and  _146
REMARK   57  A    between atoms: _145  and  _148
REMARK   58  A    between atoms: _148  and  _149
REMARK   59  A    between atoms: _154  and  _155
REMARK   60  A    between atoms: _157  and  _159
REMARK   61  A    between atoms: _159  and  _160
REMARK   62  A    between atoms: _159  and  _162
REMARK   63  A    between atoms: _165  and  _167
REMARK   64  A    between atoms: _167  and  _168
REMARK   65  A    between atoms: _167  and  _170
REMARK   66  A    between atoms: _170  and  _171
REMARK   67  A    between atoms: _177  and  _178
REMARK   68  A    between atoms: _183  and  _185
REMARK   69  A    between atoms: _185  and  _186
REMARK   70  A    between atoms: _185  and  _188
REMARK   71  A    between atoms: _188  and  _189
REMARK   72  A    between atoms: _191  and  _193
REMARK   73  A    between atoms: _193  and  _194
REMARK   74  A    between atoms: _193  and  _196
REMARK   75  A    between atoms: _196  and  _197
REMARK   76  A    between atoms: _197  and  _198
REMARK   77  A    between atoms: _201  and  _203
REMARK   78  A    between atoms: _203  and  _204
REMARK   79  A    between atoms: _203  and  _206
REMARK   80  A    between atoms: _206  and  _207
REMARK   81  A    between atoms: _212  and  _213
REMARK   82  A    between atoms: _215  and  _217
REMARK   83  A    between atoms: _217  and  _218
REMARK   84  A    between atoms: _217  and  _220
REMARK   85  A    between atoms: _220  and  _221
REMARK   86  A    between atoms: _226  and  _228
REMARK   87  A    between atoms: _228  and  _229
REMARK   88  A    between atoms: _228  and  _231
REMARK   89  A    between atoms: _231  and  _232
REMARK   90  A    between atoms: _237  and  _239
REMARK   91  A    between atoms: _239  and  _240
REMARK   92  A    between atoms: _239  and  _242
REMARK   93  A    between atoms: _242  and  _243
REMARK   94  A    between atoms: _243  and  _244
REMARK   95  A    between atoms: _246  and  _248
REMARK   96  A    between atoms: _248  and  _249
REMARK   97  A    between atoms: _248  and  _251
REMARK   98  A    between atoms: _251  and  _252
REMARK   99  A    between atoms: _257  and  _258
REMARK  100  A    between atoms: _260  and  _262
REMARK  101  A    between atoms: _262  and  _263
REMARK  102  A    between atoms: _262  and  _265
REMARK  103  A    between atoms: _265  and  _266
REMARK  104  A    between atoms: _269  and  _271
REMARK  105  A    between atoms: _271  and  _272
REMARK  106  A    between atoms: _271  and  _274
REMARK  107  A    between atoms: _274  and  _275
REMARK  108  A    between atoms: _275  and  _496
REMARK  109  A    between atoms: _276  and  _278
REMARK  110  A    between atoms: _278  and  _279
REMARK  111  A    between atoms: _278  and  _281
REMARK  112  A    between atoms: _281  and  _282
REMARK  113  A    between atoms: _285  and  _287
REMARK  114  A    between atoms: _287  and  _288
REMARK  115  A    between atoms: _287  and  _290
REMARK  116  A    between atoms: _290  and  _291
REMARK  117  A    between atoms: _296  and  _297
REMARK  118  A    between atoms: _299  and  _301
REMARK  119  A    between atoms: _301  and  _302
REMARK  120  A    between atoms: _301  and  _304
REMARK  121  A    between atoms: _304  and  _305
REMARK  122  A    between atoms: _310  and  _311
REMARK  123  A    between atoms: _313  and  _315
REMARK  124  A    between atoms: _315  and  _316
REMARK  125  A    between atoms: _315  and  _318
REMARK  126  A    between atoms: _318  and  _319
REMARK  127  A    between atoms: _319  and  _320
REMARK  128  A    between atoms: _323  and  _325
REMARK  129  A    between atoms: _325  and  _326
REMARK  130  A    between atoms: _325  and  _328
REMARK  131  A    between atoms: _328  and  _329
REMARK  132  A    between atoms: _329  and  _330
REMARK  133  A    between atoms: _330  and  _331
REMARK  134  A    between atoms: _331  and  _332
REMARK  135  A    between atoms: _336  and  _338
REMARK  136  A    between atoms: _338  and  _339
REMARK  137  A    between atoms: _338  and  _341
REMARK  138  A    between atoms: _341  and  _342
REMARK  139  A    between atoms: _347  and  _348
REMARK  140  A    between atoms: _350  and  _352
REMARK  141  A    between atoms: _352  and  _353
REMARK  142  A    between atoms: _352  and  _355
REMARK  143  A    between atoms: _355  and  _356
REMARK  144  A    between atoms: _361  and  _363
REMARK  145  A    between atoms: _363  and  _364
REMARK  146  A    between atoms: _363  and  _366
REMARK  147  A    between atoms: _366  and  _367
REMARK  148  A    between atoms: _370  and  _372
REMARK  149  A    between atoms: _372  and  _373
REMARK  150  A    between atoms: _372  and  _375
REMARK  151  A    between atoms: _375  and  _376
REMARK  152  A    between atoms: _381  and  _383
REMARK  153  A    between atoms: _383  and  _384
REMARK  154  A    between atoms: _383  and  _386
REMARK  155  A    between atoms: _386  and  _387
REMARK  156  A    between atoms: _397  and  _399
REMARK  157  A    between atoms: _399  and  _400
REMARK  158  A    between atoms: _399  and  _402
REMARK  159  A    between atoms: _402  and  _403
REMARK  160  A    between atoms: _409  and  _411
REMARK  161  A    between atoms: _411  and  _412
REMARK  162  A    between atoms: _411  and  _414
REMARK  163  A    between atoms: _414  and  _415
REMARK  164  A    between atoms: _418  and  _420
REMARK  165  A    between atoms: _420  and  _421
REMARK  166  A    between atoms: _420  and  _423
REMARK  167  A    between atoms: _423  and  _424
REMARK  168  A    between atoms: _424  and  _425
REMARK  169  A    between atoms: _425  and  _426
REMARK  170  A    between atoms: _435  and  _437
REMARK  171  A    between atoms: _437  and  _438
REMARK  172  A    between atoms: _437  and  _440
REMARK  173  A    between atoms: _440  and  _441
REMARK  174  A    between atoms: _446  and  _448
REMARK  175  A    between atoms: _448  and  _449
REMARK  176  A    between atoms: _448  and  _451
REMARK  177  A    between atoms: _451  and  _452
REMARK  178  A    between atoms: _452  and  _453
REMARK  179  A    between atoms: _453  and  _454
REMARK  180  A    between atoms: _463  and  _465
REMARK  181  A    between atoms: _465  and  _466
REMARK  182  A    between atoms: _469  and  _471
REMARK  183  A    between atoms: _471  and  _472
REMARK  184  A    between atoms: _474  and  _476
REMARK  185  A    between atoms: _476  and  _477
REMARK  186  A    between atoms: _476  and  _479
REMARK  187  A    between atoms: _479  and  _480
REMARK  188  A    between atoms: _490  and  _492
REMARK  189  A    between atoms: _492  and  _493
REMARK  190  A    between atoms: _492  and  _495
REMARK  191  A    between atoms: _495  and  _496
REMARK  192  A    between atoms: _497  and  _499
REMARK  193  A    between atoms: _499  and  _500
REMARK  194  A    between atoms: _503  and  _505
REMARK  195  A    between atoms: _505  and  _506
REMARK  196  A    between atoms: _505  and  _508
REMARK  197  A    between atoms: _508  and  _509
REMARK  198  A    between atoms: _512  and  _514
REMARK  199  A    between atoms: _514  and  _515
REMARK  200  A    between atoms: _514  and  _517
REMARK  201  A    between atoms: _517  and  _518
REMARK  202  A    between atoms: _523  and  _524
REMARK  203  A    between atoms: _526  and  _528
REMARK  204  A    between atoms: _528  and  _529
REMARK  205  A    between atoms: _528  and  _531
REMARK  206  A    between atoms: _531  and  _532
REMARK  207  A    between atoms: _534  and  _536
REMARK  208  A    between atoms: _536  and  _537
REMARK  209  A    between atoms: _536  and  _539
REMARK  210  A    between atoms: _539  and  _540
REMARK  211  A    between atoms: _546  and  _548
REMARK  212  A    between atoms: _548  and  _549
REMARK  213  A    between atoms: _548  and  _551
REMARK  214  A    between atoms: _551  and  _552
REMARK  215  A    between atoms: _555  and  _557
REMARK  216  A    between atoms: _557  and  _558
REMARK  217  A    between atoms: _557  and  _560
REMARK  218  A    between atoms: _560  and  _561
REMARK  219  A    between atoms: _563  and  _565
REMARK  220  A    between atoms: _565  and  _566
REMARK  221  A    between atoms: _565  and  _568
REMARK  222  A    between atoms: _568  and  _569
REMARK  223  A    between atoms: _574  and  _576
REMARK  224  A    between atoms: _576  and  _577
REMARK  225  A    between atoms: _576  and  _579
REMARK  226  A    between atoms: _579  and  _580
REMARK  227  A    between atoms: _585  and  _587
REMARK  228  A    between atoms: _587  and  _588
REMARK  229  A    between atoms: _587  and  _590
REMARK  230  A    between atoms: _590  and  _591
REMARK  231  A    between atoms: _594  and  _596
REMARK  232  A    between atoms: _596  and  _597
REMARK  233  A    between atoms: _600  and  _602
REMARK  234  A    between atoms: _602  and  _603
REMARK  235  A    between atoms: _602  and  _605
REMARK  236  A    between atoms: _605  and  _606
REMARK  237  A    between atoms: _611  and  _612
REMARK  238  A    between atoms: _614  and  _616
REMARK  239  A    between atoms: _616  and  _617
REMARK  240  A    between atoms: _616  and  _619
REMARK  241  A    between atoms: _619  and  _620
REMARK  242  A    between atoms: _625  and  _626
REMARK  243  A    between atoms: _628  and  _630
REMARK  244  A    between atoms: _630  and  _631
REMARK  245  A    between atoms: _630  and  _633
REMARK  246  A    between atoms: _636  and  _638
REMARK  247  A    between atoms: _638  and  _639
REMARK  248  A    between atoms: _638  and  _641
REMARK  249  A    between atoms: _641  and  _642
REMARK  250  A    between atoms: _647  and  _649
REMARK  251  A    between atoms: _649  and  _650
REMARK  252  A    between atoms: _653  and  _655
REMARK  253  A    between atoms: _655  and  _656
REMARK  254  A    between atoms: _655  and  _658
REMARK  255  A    between atoms: _658  and  _659
REMARK  256  A    between atoms: _659  and  _660
REMARK  257  A    between atoms: _660  and  _661
REMARK  258  A    between atoms: _670  and  _672
REMARK  259  A    between atoms: _672  and  _673
REMARK  260  A    between atoms: _672  and  _675
REMARK  261  A    between atoms: _675  and  _676
REMARK  262  A    between atoms: _679  and  _681
REMARK  263  A    between atoms: _681  and  _682
REMARK  264  A    between atoms: _681  and  _684
REMARK  265  A    between atoms: _684  and  _685
REMARK  266  A    between atoms: _688  and  _690
REMARK  267  A    between atoms: _690  and  _691
REMARK  268  A    between atoms: _690  and  _693
REMARK  269  A    between atoms: _693  and  _694
REMARK                            x       y       z     vdW  Elec       q    Type
REMARK                         _______ _______ _______ _____ _____    ______ ____
ROOT
ATOM      1  O   HOH     1      -2.058  17.033   7.543  0.00  0.00    +0.000 OA
ENDROOT
TORSDOF 0
REMARK  Name = ../refined-set-2016/1b3f/1b3f_pocket.pdb
REMARK  269 active torsions:
REMARK  status: ('A' for Active; 'I' for Inactive)
REMARK    1  A    between atoms: _1  and  _3
REMARK    2  A    between atoms: _3  and  _4
REMARK    3  A    between atoms: _3  and  _6
REMARK    4  A    between atoms: _6  and  _7
REMARK    5  A    between atoms: _12  and  _14
REMARK    6  A    between atoms: _14  and  _15
REMARK    7  A    between atoms: _17  and  _19
REMARK    8  A    between atoms: _19  and  _20
REMARK    9  A    between atoms: _19  and  _22
REMARK   10  A    between atoms: _22  and  _23
REMARK   11  A    between atoms: _25  and  _27
REMARK   12  A    between atoms: _27  and  _28
REMARK   13  A    between atoms: _27  and  _30
REMARK   14  A    between atoms: _30  and  _31
REMARK   15  A    between atoms: _31  and  _32
REMARK   16  A    between atoms: _37  and  _39
REMARK   17  A    between atoms: _39  and  _40
REMARK   18  A    between atoms: _39  and  _42
REMARK   19  A    between atoms: _42  and  _43
REMARK   20  A    between atoms: _46  and  _48
REMARK   21  A    between atoms: _48  and  _49
REMARK   22  A    between atoms: _48  and  _51
REMARK   23  A    between atoms: _52  and  _53
REMARK   24  A    between atoms: _56  and  _58
REMARK   25  A    between atoms: _58  and  _59
REMARK   26  A    between atoms: _61  and  _63
REMARK   27  A    between atoms: _63  and  _64
REMARK   28  A    between atoms: _63  and  _66
REMARK   29  A    between atoms: _70  and  _71
REMARK   30  A    between atoms: _76  and  _78
REMARK   31  A    between atoms: _78  and  _79
REMARK   32  A    between atoms: _78  and  _81
REMARK   33  A    between atoms: _81  and  _82
REMARK   34  A    between atoms: _82  and  _83
REMARK   35  A    between atoms: _86  and  _88
REMARK   36  A    between atoms: _88  and  _89
REMARK   37  A    between atoms: _88  and  _91
REMARK   38  A    between atoms: _91  and  _92
REMARK   39  A    between atoms: _94  and  _96
REMARK   40  A    between atoms: _96  and  _97
REMARK   41  A    between atoms: _96  and  _99
REMARK   42  A    between atoms: _99  and  _100
REMARK   43  A    between atoms: _105  and  _107
REMARK   44  A    between atoms: _107  and  _108
REMARK   45  A    between atoms: _107  and  _110
REMARK   46  A    between atoms: _110  and  _111
REMARK   47  A    between atoms: _111  and  _112
REMARK   48  A    between atoms: _112  and  _113
REMARK   49  A    between atoms: _123  and  _124
REMARK   50  A    between atoms: _129  and  _131
REMARK   51  A    between atoms: _131  and  _132
REMARK   52  A    between atoms: _131  and  _134
REMARK   53  A    between atoms: _134  and  _135
REMARK   54  A    between atoms: _140  and  _141
REMARK   55  A    between atoms: _143  and  _145
REMARK   56  A    between atoms: _145  and  _146
REMARK   57  A    between atoms: _145  and  _148
REMARK   58  A    between atoms: _148  and  _149
REMARK   59  A    between atoms: _154  and  _155
REMARK   60  A    between atoms: _157  and  _159
REMARK   61  A    between atoms: _159  and  _160
REMARK   62  A    between atoms: _159  and  _162
REMARK   63  A    between atoms: _165  and  _167
REMARK   64  A    between atoms: _167  and  _168
REMARK   65  A    between atoms: _167  and  _170
REMARK   66  A    between atoms: _170  and  _171
REMARK   67  A    between atoms: _177  and  _178
REMARK   68  A    between atoms: _183  and  _185
REMARK   69  A    between atoms: _185  and  _186
REMARK   70  A    between atoms: _185  and  _188
REMARK   71  A    between atoms: _188  and  _189
REMARK   72  A    between atoms: _191  and  _193
REMARK   73  A    between atoms: _193  and  _194
REMARK   74  A    between atoms: _193  and  _196
REMARK   75  A    between atoms: _196  and  _197
REMARK   76  A    between atoms: _197  and  _198
REMARK   77  A    between atoms: _201  and  _203
REMARK   78  A    between atoms: _203  and  _204
REMARK   79  A    between atoms: _203  and  _206
REMARK   80  A    between atoms: _206  and  _207
REMARK   81  A    between atoms: _212  and  _213
REMARK   82  A    between atoms: _215  and  _217
REMARK   83  A    between atoms: _217  and  _218
REMARK   84  A    between atoms: _217  and  _220
REMARK   85  A    between atoms: _220  and  _221
REMARK   86  A    between atoms: _226  and  _228
REMARK   87  A    between atoms: _228  and  _229
REMARK   88  A    between atoms: _228  and  _231
REMARK   89  A    between atoms: _231  and  _232
REMARK   90  A    between atoms: _237  and  _239
REMARK   91  A    between atoms: _239  and  _240
REMARK   92  A    between atoms: _239  and  _242
REMARK   93  A    between atoms: _242  and  _243
REMARK   94  A    between atoms: _243  and  _244
REMARK   95  A    between atoms: _246  and  _248
REMARK   96  A    between atoms: _248  and  _249
REMARK   97  A    between atoms: _248  and  _251
REMARK   98  A    between atoms: _251  and  _252
REMARK   99  A    between atoms: _257  and  _258
REMARK  100  A    between atoms: _260  and  _262
REMARK  101  A    between atoms: _262  and  _263
REMARK  102  A    between atoms: _262  and  _265
REMARK  103  A    between atoms: _265  and  _266
REMARK  104  A    between atoms: _269  and  _271
REMARK  105  A    between atoms: _271  and  _272
REMARK  106  A    between atoms: _271  and  _274
REMARK  107  A    between atoms: _274  and  _275
REMARK  108  A    between atoms: _275  and  _496
REMARK  109  A    between atoms: _276  and  _278
REMARK  110  A    between atoms: _278  and  _279
REMARK  111  A    between atoms: _278  and  _281
REMARK  112  A    between atoms: _281  and  _282
REMARK  113  A    between atoms: _285  and  _287
REMARK  114  A    between atoms: _287  and  _288
REMARK  115  A    between atoms: _287  and  _290
REMARK  116  A    between atoms: _290  and  _291
REMARK  117  A    between atoms: _296  and  _297
REMARK  118  A    between atoms: _299  and  _301
REMARK  119  A    between atoms: _301  and  _302
REMARK  120  A    between atoms: _301  and  _304
REMARK  121  A    between atoms: _304  and  _305
REMARK  122  A    between atoms: _310  and  _311
REMARK  123  A    between atoms: _313  and  _315
REMARK  124  A    between atoms: _315  and  _316
REMARK  125  A    between atoms: _315  and  _318
REMARK  126  A    between atoms: _318  and  _319
REMARK  127  A    between atoms: _319  and  _320
REMARK  128  A    between atoms: _323  and  _325
REMARK  129  A    between atoms: _325  and  _326
REMARK  130  A    between atoms: _325  and  _328
REMARK  131  A    between atoms: _328  and  _329
REMARK  132  A    between atoms: _329  and  _330
REMARK  133  A    between atoms: _330  and  _331
REMARK  134  A    between atoms: _331  and  _332
REMARK  135  A    between atoms: _336  and  _338
REMARK  136  A    between atoms: _338  and  _339
REMARK  137  A    between atoms: _338  and  _341
REMARK  138  A    between atoms: _341  and  _342
REMARK  139  A    between atoms: _347  and  _348
REMARK  140  A    between atoms: _350  and  _352
REMARK  141  A    between atoms: _352  and  _353
REMARK  142  A    between atoms: _352  and  _355
REMARK  143  A    between atoms: _355  and  _356
REMARK  144  A    between atoms: _361  and  _363
REMARK  145  A    between atoms: _363  and  _364
REMARK  146  A    between atoms: _363  and  _366
REMARK  147  A    between atoms: _366  and  _367
REMARK  148  A    between atoms: _370  and  _372
REMARK  149  A    between atoms: _372  and  _373
REMARK  150  A    between atoms: _372  and  _375
REMARK  151  A    between atoms: _375  and  _376
REMARK  152  A    between atoms: _381  and  _383
REMARK  153  A    between atoms: _383  and  _384
REMARK  154  A    between atoms: _383  and  _386
REMARK  155  A    between atoms: _386  and  _387
REMARK  156  A    between atoms: _397  and  _399
REMARK  157  A    between atoms: _399  and  _400
REMARK  158  A    between atoms: _399  and  _402
REMARK  159  A    between atoms: _402  and  _403
REMARK  160  A    between atoms: _409  and  _411
REMARK  161  A    between atoms: _411  and  _412
REMARK  162  A    between atoms: _411  and  _414
REMARK  163  A    between atoms: _414  and  _415
REMARK  164  A    between atoms: _418  and  _420
REMARK  165  A    between atoms: _420  and  _421
REMARK  166  A    between atoms: _420  and  _423
REMARK  167  A    between atoms: _423  and  _424
REMARK  168  A    between atoms: _424  and  _425
REMARK  169  A    between atoms: _425  and  _426
REMARK  170  A    between atoms: _435  and  _437
REMARK  171  A    between atoms: _437  and  _438
REMARK  172  A    between atoms: _437  and  _440
REMARK  173  A    between atoms: _440  and  _441
REMARK  174  A    between atoms: _446  and  _448
REMARK  175  A    between atoms: _448  and  _449
REMARK  176  A    between atoms: _448  and  _451
REMARK  177  A    between atoms: _451  and  _452
REMARK  178  A    between atoms: _452  and  _453
REMARK  179  A    between atoms: _453  and  _454
REMARK  180  A    between atoms: _463  and  _465
REMARK  181  A    between atoms: _465  and  _466
REMARK  182  A    between atoms: _469  and  _471
REMARK  183  A    between atoms: _471  and  _472
REMARK  184  A    between atoms: _474  and  _476
REMARK  185  A    between atoms: _476  and  _477
REMARK  186  A    between atoms: _476  and  _479
REMARK  187  A    between atoms: _479  and  _480
REMARK  188  A    between atoms: _490  and  _492
REMARK  189  A    between atoms: _492  and  _493
REMARK  190  A    between atoms: _492  and  _495
REMARK  191  A    between atoms: _495  and  _496
REMARK  192  A    between atoms: _497  and  _499
REMARK  193  A    between atoms: _499  and  _500
REMARK  194  A    between atoms: _503  and  _505
REMARK  195  A    between atoms: _505  and  _506
REMARK  196  A    between atoms: _505  and  _508
REMARK  197  A    between atoms: _508  and  _509
REMARK  198  A    between atoms: _512  and  _514
REMARK  199  A    between atoms: _514  and  _515
REMARK  200  A    between atoms: _514  and  _517
REMARK  201  A    between atoms: _517  and  _518
REMARK  202  A    between atoms: _523  and  _524
REMARK  203  A    between atoms: _526  and  _528
REMARK  204  A    between atoms: _528  and  _529
REMARK  205  A    between atoms: _528  and  _531
REMARK  206  A    between atoms: _531  and  _532
REMARK  207  A    between atoms: _534  and  _536
REMARK  208  A    between atoms: _536  and  _537
REMARK  209  A    between atoms: _536  and  _539
REMARK  210  A    between atoms: _539  and  _540
REMARK  211  A    between atoms: _546  and  _548
REMARK  212  A    between atoms: _548  and  _549
REMARK  213  A    between atoms: _548  and  _551
REMARK  214  A    between atoms: _551  and  _552
REMARK  215  A    between atoms: _555  and  _557
REMARK  216  A    between atoms: _557  and  _558
REMARK  217  A    between atoms: _557  and  _560
REMARK  218  A    between atoms: _560  and  _561
REMARK  219  A    between atoms: _563  and  _565
REMARK  220  A    between atoms: _565  and  _566
REMARK  221  A    between atoms: _565  and  _568
REMARK  222  A    between atoms: _568  and  _569
REMARK  223  A    between atoms: _574  and  _576
REMARK  224  A    between atoms: _576  and  _577
REMARK  225  A    between atoms: _576  and  _579
REMARK  226  A    between atoms: _579  and  _580
REMARK  227  A    between atoms: _585  and  _587
REMARK  228  A    between atoms: _587  and  _588
REMARK  229  A    between atoms: _587  and  _590
REMARK  230  A    between atoms: _590  and  _591
REMARK  231  A    between atoms: _594  and  _596
REMARK  232  A    between atoms: _596  and  _597
REMARK  233  A    between atoms: _600  and  _602
REMARK  234  A    between atoms: _602  and  _603
REMARK  235  A    between atoms: _602  and  _605
REMARK  236  A    between atoms: _605  and  _606
REMARK  237  A    between atoms: _611  and  _612
REMARK  238  A    between atoms: _614  and  _616
REMARK  239  A    between atoms: _616  and  _617
REMARK  240  A    between atoms: _616  and  _619
REMARK  241  A    between atoms: _619  and  _620
REMARK  242  A    between atoms: _625  and  _626
REMARK  243  A    between atoms: _628  and  _630
REMARK  244  A    between atoms: _630  and  _631
REMARK  245  A    between atoms: _630  and  _633
REMARK  246  A    between atoms: _636  and  _638
REMARK  247  A    between atoms: _638  and  _639
REMARK  248  A    between atoms: _638  and  _641
REMARK  249  A    between atoms: _641  and  _642
REMARK  250  A    between atoms: _647  and  _649
REMARK  251  A    between atoms: _649  and  _650
REMARK  252  A    between atoms: _653  and  _655
REMARK  253  A    between atoms: _655  and  _656
REMARK  254  A    between atoms: _655  and  _658
REMARK  255  A    between atoms: _658  and  _659
REMARK  256  A    between atoms: _659  and  _660
REMARK  257  A    between atoms: _660  and  _661
REMARK  258  A    between atoms: _670  and  _672
REMARK  259  A    between atoms: _672  and  _673
REMARK  260  A    between atoms: _672  and  _675
REMARK  261  A    between atoms: _675  and  _676
REMARK  262  A    between atoms: _679  and  _681
REMARK  263  A    between atoms: _681  and  _682
REMARK  264  A    between atoms: _681  and  _684
REMARK  265  A    between atoms: _684  and  _685
REMARK  266  A    between atoms: _688  and  _690
REMARK  267  A    between atoms: _690  and  _691
REMARK  268  A    between atoms: _690  and  _693
REMARK  269  A    between atoms: _693  and  _694
REMARK                            x       y       z     vdW  Elec       q    Type
REMARK                         _______ _______ _______ _____ _____    ______ ____
ROOT
ATOM      1  O   HOH     1       9.050  26.673  15.791  0.00  0.00    +0.000 OA
ENDROOT
TORSDOF 0
REMARK  Name = ../refined-set-2016/1b3f/1b3f_pocket.pdb
REMARK  269 active torsions:
REMARK  status: ('A' for Active; 'I' for Inactive)
REMARK    1  A    between atoms: _1  and  _3
REMARK    2  A    between atoms: _3  and  _4
REMARK    3  A    between atoms: _3  and  _6
REMARK    4  A    between atoms: _6  and  _7
REMARK    5  A    between atoms: _12  and  _14
REMARK    6  A    between atoms: _14  and  _15
REMARK    7  A    between atoms: _17  and  _19
REMARK    8  A    between atoms: _19  and  _20
REMARK    9  A    between atoms: _19  and  _22
REMARK   10  A    between atoms: _22  and  _23
REMARK   11  A    between atoms: _25  and  _27
REMARK   12  A    between atoms: _27  and  _28
REMARK   13  A    between atoms: _27  and  _30
REMARK   14  A    between atoms: _30  and  _31
REMARK   15  A    between atoms: _31  and  _32
REMARK   16  A    between atoms: _37  and  _39
REMARK   17  A    between atoms: _39  and  _40
REMARK   18  A    between atoms: _39  and  _42
REMARK   19  A    between atoms: _42  and  _43
REMARK   20  A    between atoms: _46  and  _48
REMARK   21  A    between atoms: _48  and  _49
REMARK   22  A    between atoms: _48  and  _51
REMARK   23  A    between atoms: _52  and  _53
REMARK   24  A    between atoms: _56  and  _58
REMARK   25  A    between atoms: _58  and  _59
REMARK   26  A    between atoms: _61  and  _63
REMARK   27  A    between atoms: _63  and  _64
REMARK   28  A    between atoms: _63  and  _66
REMARK   29  A    between atoms: _70  and  _71
REMARK   30  A    between atoms: _76  and  _78
REMARK   31  A    between atoms: _78  and  _79
REMARK   32  A    between atoms: _78  and  _81
REMARK   33  A    between atoms: _81  and  _82
REMARK   34  A    between atoms: _82  and  _83
REMARK   35  A    between atoms: _86  and  _88
REMARK   36  A    between atoms: _88  and  _89
REMARK   37  A    between atoms: _88  and  _91
REMARK   38  A    between atoms: _91  and  _92
REMARK   39  A    between atoms: _94  and  _96
REMARK   40  A    between atoms: _96  and  _97
REMARK   41  A    between atoms: _96  and  _99
REMARK   42  A    between atoms: _99  and  _100
REMARK   43  A    between atoms: _105  and  _107
REMARK   44  A    between atoms: _107  and  _108
REMARK   45  A    between atoms: _107  and  _110
REMARK   46  A    between atoms: _110  and  _111
REMARK   47  A    between atoms: _111  and  _112
REMARK   48  A    between atoms: _112  and  _113
REMARK   49  A    between atoms: _123  and  _124
REMARK   50  A    between atoms: _129  and  _131
REMARK   51  A    between atoms: _131  and  _132
REMARK   52  A    between atoms: _131  and  _134
REMARK   53  A    between atoms: _134  and  _135
REMARK   54  A    between atoms: _140  and  _141
REMARK   55  A    between atoms: _143  and  _145
REMARK   56  A    between atoms: _145  and  _146
REMARK   57  A    between atoms: _145  and  _148
REMARK   58  A    between atoms: _148  and  _149
REMARK   59  A    between atoms: _154  and  _155
REMARK   60  A    between atoms: _157  and  _159
REMARK   61  A    between atoms: _159  and  _160
REMARK   62  A    between atoms: _159  and  _162
REMARK   63  A    between atoms: _165  and  _167
REMARK   64  A    between atoms: _167  and  _168
REMARK   65  A    between atoms: _167  and  _170
REMARK   66  A    between atoms: _170  and  _171
REMARK   67  A    between atoms: _177  and  _178
REMARK   68  A    between atoms: _183  and  _185
REMARK   69  A    between atoms: _185  and  _186
REMARK   70  A    between atoms: _185  and  _188
REMARK   71  A    between atoms: _188  and  _189
REMARK   72  A    between atoms: _191  and  _193
REMARK   73  A    between atoms: _193  and  _194
REMARK   74  A    between atoms: _193  and  _196
REMARK   75  A    between atoms: _196  and  _197
REMARK   76  A    between atoms: _197  and  _198
REMARK   77  A    between atoms: _201  and  _203
REMARK   78  A    between atoms: _203  and  _204
REMARK   79  A    between atoms: _203  and  _206
REMARK   80  A    between atoms: _206  and  _207
REMARK   81  A    between atoms: _212  and  _213
REMARK   82  A    between atoms: _215  and  _217
REMARK   83  A    between atoms: _217  and  _218
REMARK   84  A    between atoms: _217  and  _220
REMARK   85  A    between atoms: _220  and  _221
REMARK   86  A    between atoms: _226  and  _228
REMARK   87  A    between atoms: _228  and  _229
REMARK   88  A    between atoms: _228  and  _231
REMARK   89  A    between atoms: _231  and  _232
REMARK   90  A    between atoms: _237  and  _239
REMARK   91  A    between atoms: _239  and  _240
REMARK   92  A    between atoms: _239  and  _242
REMARK   93  A    between atoms: _242  and  _243
REMARK   94  A    between atoms: _243  and  _244
REMARK   95  A    between atoms: _246  and  _248
REMARK   96  A    between atoms: _248  and  _249
REMARK   97  A    between atoms: _248  and  _251
REMARK   98  A    between atoms: _251  and  _252
REMARK   99  A    between atoms: _257  and  _258
REMARK  100  A    between atoms: _260  and  _262
REMARK  101  A    between atoms: _262  and  _263
REMARK  102  A    between atoms: _262  and  _265
REMARK  103  A    between atoms: _265  and  _266
REMARK  104  A    between atoms: _269  and  _271
REMARK  105  A    between atoms: _271  and  _272
REMARK  106  A    between atoms: _271  and  _274
REMARK  107  A    between atoms: _274  and  _275
REMARK  108  A    between atoms: _275  and  _496
REMARK  109  A    between atoms: _276  and  _278
REMARK  110  A    between atoms: _278  and  _279
REMARK  111  A    between atoms: _278  and  _281
REMARK  112  A    between atoms: _281  and  _282
REMARK  113  A    between atoms: _285  and  _287
REMARK  114  A    between atoms: _287  and  _288
REMARK  115  A    between atoms: _287  and  _290
REMARK  116  A    between atoms: _290  and  _291
REMARK  117  A    between atoms: _296  and  _297
REMARK  118  A    between atoms: _299  and  _301
REMARK  119  A    between atoms: _301  and  _302
REMARK  120  A    between atoms: _301  and  _304
REMARK  121  A    between atoms: _304  and  _305
REMARK  122  A    between atoms: _310  and  _311
REMARK  123  A    between atoms: _313  and  _315
REMARK  124  A    between atoms: _315  and  _316
REMARK  125  A    between atoms: _315  and  _318
REMARK  126  A    between atoms: _318  and  _319
REMARK  127  A    between atoms: _319  and  _320
REMARK  128  A    between atoms: _323  and  _325
REMARK  129  A    between atoms: _325  and  _326
REMARK  130  A    between atoms: _325  and  _328
REMARK  131  A    between atoms: _328  and  _329
REMARK  132  A    between atoms: _329  and  _330
REMARK  133  A    between atoms: _330  and  _331
REMARK  134  A    between atoms: _331  and  _332
REMARK  135  A    between atoms: _336  and  _338
REMARK  136  A    between atoms: _338  and  _339
REMARK  137  A    between atoms: _338  and  _341
REMARK  138  A    between atoms: _341  and  _342
REMARK  139  A    between atoms: _347  and  _348
REMARK  140  A    between atoms: _350  and  _352
REMARK  141  A    between atoms: _352  and  _353
REMARK  142  A    between atoms: _352  and  _355
REMARK  143  A    between atoms: _355  and  _356
REMARK  144  A    between atoms: _361  and  _363
REMARK  145  A    between atoms: _363  and  _364
REMARK  146  A    between atoms: _363  and  _366
REMARK  147  A    between atoms: _366  and  _367
REMARK  148  A    between atoms: _370  and  _372
REMARK  149  A    between atoms: _372  and  _373
REMARK  150  A    between atoms: _372  and  _375
REMARK  151  A    between atoms: _375  and  _376
REMARK  152  A    between atoms: _381  and  _383
REMARK  153  A    between atoms: _383  and  _384
REMARK  154  A    between atoms: _383  and  _386
REMARK  155  A    between atoms: _386  and  _387
REMARK  156  A    between atoms: _397  and  _399
REMARK  157  A    between atoms: _399  and  _400
REMARK  158  A    between atoms: _399  and  _402
REMARK  159  A    between atoms: _402  and  _403
REMARK  160  A    between atoms: _409  and  _411
REMARK  161  A    between atoms: _411  and  _412
REMARK  162  A    between atoms: _411  and  _414
REMARK  163  A    between atoms: _414  and  _415
REMARK  164  A    between atoms: _418  and  _420
REMARK  165  A    between atoms: _420  and  _421
REMARK  166  A    between atoms: _420  and  _423
REMARK  167  A    between atoms: _423  and  _424
REMARK  168  A    between atoms: _424  and  _425
REMARK  169  A    between atoms: _425  and  _426
REMARK  170  A    between atoms: _435  and  _437
REMARK  171  A    between atoms: _437  and  _438
REMARK  172  A    between atoms: _437  and  _440
REMARK  173  A    between atoms: _440  and  _441
REMARK  174  A    between atoms: _446  and  _448
REMARK  175  A    between atoms: _448  and  _449
REMARK  176  A    between atoms: _448  and  _451
REMARK  177  A    between atoms: _451  and  _452
REMARK  178  A    between atoms: _452  and  _453
REMARK  179  A    between atoms: _453  and  _454
REMARK  180  A    between atoms: _463  and  _465
REMARK  181  A    between atoms: _465  and  _466
REMARK  182  A    between atoms: _469  and  _471
REMARK  183  A    between atoms: _471  and  _472
REMARK  184  A    between atoms: _474  and  _476
REMARK  185  A    between atoms: _476  and  _477
REMARK  186  A    between atoms: _476  and  _479
REMARK  187  A    between atoms: _479  and  _480
REMARK  188  A    between atoms: _490  and  _492
REMARK  189  A    between atoms: _492  and  _493
REMARK  190  A    between atoms: _492  and  _495
REMARK  191  A    between atoms: _495  and  _496
REMARK  192  A    between atoms: _497  and  _499
REMARK  193  A    between atoms: _499  and  _500
REMARK  194  A    between atoms: _503  and  _505
REMARK  195  A    between atoms: _505  and  _506
REMARK  196  A    between atoms: _505  and  _508
REMARK  197  A    between atoms: _508  and  _509
REMARK  198  A    between atoms: _512  and  _514
REMARK  199  A    between atoms: _514  and  _515
REMARK  200  A    between atoms: _514  and  _517
REMARK  201  A    between atoms: _517  and  _518
REMARK  202  A    between atoms: _523  and  _524
REMARK  203  A    between atoms: _526  and  _528
REMARK  204  A    between atoms: _528  and  _529
REMARK  205  A    between atoms: _528  and  _531
REMARK  206  A    between atoms: _531  and  _532
REMARK  207  A    between atoms: _534  and  _536
REMARK  208  A    between atoms: _536  and  _537
REMARK  209  A    between atoms: _536  and  _539
REMARK  210  A    between atoms: _539  and  _540
REMARK  211  A    between atoms: _546  and  _548
REMARK  212  A    between atoms: _548  and  _549
REMARK  213  A    between atoms: _548  and  _551
REMARK  214  A    between atoms: _551  and  _552
REMARK  215  A    between atoms: _555  and  _557
REMARK  216  A    between atoms: _557  and  _558
REMARK  217  A    between atoms: _557  and  _560
REMARK  218  A    between atoms: _560  and  _561
REMARK  219  A    between atoms: _563  and  _565
REMARK  220  A    between atoms: _565  and  _566
REMARK  221  A    between atoms: _565  and  _568
REMARK  222  A    between atoms: _568  and  _569
REMARK  223  A    between atoms: _574  and  _576
REMARK  224  A    between atoms: _576  and  _577
REMARK  225  A    between atoms: _576  and  _579
REMARK  226  A    between atoms: _579  and  _580
REMARK  227  A    between atoms: _585  and  _587
REMARK  228  A    between atoms: _587  and  _588
REMARK  229  A    between atoms: _587  and  _590
REMARK  230  A    between atoms: _590  and  _591
REMARK  231  A    between atoms: _594  and  _596
REMARK  232  A    between atoms: _596  and  _597
REMARK  233  A    between atoms: _600  and  _602
REMARK  234  A    between atoms: _602  and  _603
REMARK  235  A    between atoms: _602  and  _605
REMARK  236  A    between atoms: _605  and  _606
REMARK  237  A    between atoms: _611  and  _612
REMARK  238  A    between atoms: _614  and  _616
REMARK  239  A    between atoms: _616  and  _617
REMARK  240  A    between atoms: _616  and  _619
REMARK  241  A    between atoms: _619  and  _620
REMARK  242  A    between atoms: _625  and  _626
REMARK  243  A    between atoms: _628  and  _630
REMARK  244  A    between atoms: _630  and  _631
REMARK  245  A    between atoms: _630  and  _633
REMARK  246  A    between atoms: _636  and  _638
REMARK  247  A    between atoms: _638  and  _639
REMARK  248  A    between atoms: _638  and  _641
REMARK  249  A    between atoms: _641  and  _642
REMARK  250  A    between atoms: _647  and  _649
REMARK  251  A    between atoms: _649  and  _650
REMARK  252  A    between atoms: _653  and  _655
REMARK  253  A    between atoms: _655  and  _656
REMARK  254  A    between atoms: _655  and  _658
REMARK  255  A    between atoms: _658  and  _659
REMARK  256  A    between atoms: _659  and  _660
REMARK  257  A    between atoms: _660  and  _661
REMARK  258  A    between atoms: _670  and  _672
REMARK  259  A    between atoms: _672  and  _673
REMARK  260  A    between atoms: _672  and  _675
REMARK  261  A    between atoms: _675  and  _676
REMARK  262  A    between atoms: _679  and  _681
REMARK  263  A    between atoms: _681  and  _682
REMARK  264  A    between atoms: _681  and  _684
REMARK  265  A    between atoms: _684  and  _685
REMARK  266  A    between atoms: _688  and  _690
REMARK  267  A    between atoms: _690  and  _691
REMARK  268  A    between atoms: _690  and  _693
REMARK  269  A    between atoms: _693  and  _694
REMARK                            x       y       z     vdW  Elec       q    Type
REMARK                         _______ _______ _______ _____ _____    ______ ____
ROOT
ATOM      1  O   HOH     1       8.109  19.991  25.259  0.00  0.00    +0.000 OA
ENDROOT
TORSDOF 0
REMARK  Name = ../refined-set-2016/1b3f/1b3f_pocket.pdb
REMARK  269 active torsions:
REMARK  status: ('A' for Active; 'I' for Inactive)
REMARK    1  A    between atoms: _1  and  _3
REMARK    2  A    between atoms: _3  and  _4
REMARK    3  A    between atoms: _3  and  _6
REMARK    4  A    between atoms: _6  and  _7
REMARK    5  A    between atoms: _12  and  _14
REMARK    6  A    between atoms: _14  and  _15
REMARK    7  A    between atoms: _17  and  _19
REMARK    8  A    between atoms: _19  and  _20
REMARK    9  A    between atoms: _19  and  _22
REMARK   10  A    between atoms: _22  and  _23
REMARK   11  A    between atoms: _25  and  _27
REMARK   12  A    between atoms: _27  and  _28
REMARK   13  A    between atoms: _27  and  _30
REMARK   14  A    between atoms: _30  and  _31
REMARK   15  A    between atoms: _31  and  _32
REMARK   16  A    between atoms: _37  and  _39
REMARK   17  A    between atoms: _39  and  _40
REMARK   18  A    between atoms: _39  and  _42
REMARK   19  A    between atoms: _42  and  _43
REMARK   20  A    between atoms: _46  and  _48
REMARK   21  A    between atoms: _48  and  _49
REMARK   22  A    between atoms: _48  and  _51
REMARK   23  A    between atoms: _52  and  _53
REMARK   24  A    between atoms: _56  and  _58
REMARK   25  A    between atoms: _58  and  _59
REMARK   26  A    between atoms: _61  and  _63
REMARK   27  A    between atoms: _63  and  _64
REMARK   28  A    between atoms: _63  and  _66
REMARK   29  A    between atoms: _70  and  _71
REMARK   30  A    between atoms: _76  and  _78
REMARK   31  A    between atoms: _78  and  _79
REMARK   32  A    between atoms: _78  and  _81
REMARK   33  A    between atoms: _81  and  _82
REMARK   34  A    between atoms: _82  and  _83
REMARK   35  A    between atoms: _86  and  _88
REMARK   36  A    between atoms: _88  and  _89
REMARK   37  A    between atoms: _88  and  _91
REMARK   38  A    between atoms: _91  and  _92
REMARK   39  A    between atoms: _94  and  _96
REMARK   40  A    between atoms: _96  and  _97
REMARK   41  A    between atoms: _96  and  _99
REMARK   42  A    between atoms: _99  and  _100
REMARK   43  A    between atoms: _105  and  _107
REMARK   44  A    between atoms: _107  and  _108
REMARK   45  A    between atoms: _107  and  _110
REMARK   46  A    between atoms: _110  and  _111
REMARK   47  A    between atoms: _111  and  _112
REMARK   48  A    between atoms: _112  and  _113
REMARK   49  A    between atoms: _123  and  _124
REMARK   50  A    between atoms: _129  and  _131
REMARK   51  A    between atoms: _131  and  _132
REMARK   52  A    between atoms: _131  and  _134
REMARK   53  A    between atoms: _134  and  _135
REMARK   54  A    between atoms: _140  and  _141
REMARK   55  A    between atoms: _143  and  _145
REMARK   56  A    between atoms: _145  and  _146
REMARK   57  A    between atoms: _145  and  _148
REMARK   58  A    between atoms: _148  and  _149
REMARK   59  A    between atoms: _154  and  _155
REMARK   60  A    between atoms: _157  and  _159
REMARK   61  A    between atoms: _159  and  _160
REMARK   62  A    between atoms: _159  and  _162
REMARK   63  A    between atoms: _165  and  _167
REMARK   64  A    between atoms: _167  and  _168
REMARK   65  A    between atoms: _167  and  _170
REMARK   66  A    between atoms: _170  and  _171
REMARK   67  A    between atoms: _177  and  _178
REMARK   68  A    between atoms: _183  and  _185
REMARK   69  A    between atoms: _185  and  _186
REMARK   70  A    between atoms: _185  and  _188
REMARK   71  A    between atoms: _188  and  _189
REMARK   72  A    between atoms: _191  and  _193
REMARK   73  A    between atoms: _193  and  _194
REMARK   74  A    between atoms: _193  and  _196
REMARK   75  A    between atoms: _196  and  _197
REMARK   76  A    between atoms: _197  and  _198
REMARK   77  A    between atoms: _201  and  _203
REMARK   78  A    between atoms: _203  and  _204
REMARK   79  A    between atoms: _203  and  _206
REMARK   80  A    between atoms: _206  and  _207
REMARK   81  A    between atoms: _212  and  _213
REMARK   82  A    between atoms: _215  and  _217
REMARK   83  A    between atoms: _217  and  _218
REMARK   84  A    between atoms: _217  and  _220
REMARK   85  A    between atoms: _220  and  _221
REMARK   86  A    between atoms: _226  and  _228
REMARK   87  A    between atoms: _228  and  _229
REMARK   88  A    between atoms: _228  and  _231
REMARK   89  A    between atoms: _231  and  _232
REMARK   90  A    between atoms: _237  and  _239
REMARK   91  A    between atoms: _239  and  _240
REMARK   92  A    between atoms: _239  and  _242
REMARK   93  A    between atoms: _242  and  _243
REMARK   94  A    between atoms: _243  and  _244
REMARK   95  A    between atoms: _246  and  _248
REMARK   96  A    between atoms: _248  and  _249
REMARK   97  A    between atoms: _248  and  _251
REMARK   98  A    between atoms: _251  and  _252
REMARK   99  A    between atoms: _257  and  _258
REMARK  100  A    between atoms: _260  and  _262
REMARK  101  A    between atoms: _262  and  _263
REMARK  102  A    between atoms: _262  and  _265
REMARK  103  A    between atoms: _265  and  _266
REMARK  104  A    between atoms: _269  and  _271
REMARK  105  A    between atoms: _271  and  _272
REMARK  106  A    between atoms: _271  and  _274
REMARK  107  A    between atoms: _274  and  _275
REMARK  108  A    between atoms: _275  and  _496
REMARK  109  A    between atoms: _276  and  _278
REMARK  110  A    between atoms: _278  and  _279
REMARK  111  A    between atoms: _278  and  _281
REMARK  112  A    between atoms: _281  and  _282
REMARK  113  A    between atoms: _285  and  _287
REMARK  114  A    between atoms: _287  and  _288
REMARK  115  A    between atoms: _287  and  _290
REMARK  116  A    between atoms: _290  and  _291
REMARK  117  A    between atoms: _296  and  _297
REMARK  118  A    between atoms: _299  and  _301
REMARK  119  A    between atoms: _301  and  _302
REMARK  120  A    between atoms: _301  and  _304
REMARK  121  A    between atoms: _304  and  _305
REMARK  122  A    between atoms: _310  and  _311
REMARK  123  A    between atoms: _313  and  _315
REMARK  124  A    between atoms: _315  and  _316
REMARK  125  A    between atoms: _315  and  _318
REMARK  126  A    between atoms: _318  and  _319
REMARK  127  A    between atoms: _319  and  _320
REMARK  128  A    between atoms: _323  and  _325
REMARK  129  A    between atoms: _325  and  _326
REMARK  130  A    between atoms: _325  and  _328
REMARK  131  A    between atoms: _328  and  _329
REMARK  132  A    between atoms: _329  and  _330
REMARK  133  A    between atoms: _330  and  _331
REMARK  134  A    between atoms: _331  and  _332
REMARK  135  A    between atoms: _336  and  _338
REMARK  136  A    between atoms: _338  and  _339
REMARK  137  A    between atoms: _338  and  _341
REMARK  138  A    between atoms: _341  and  _342
REMARK  139  A    between atoms: _347  and  _348
REMARK  140  A    between atoms: _350  and  _352
REMARK  141  A    between atoms: _352  and  _353
REMARK  142  A    between atoms: _352  and  _355
REMARK  143  A    between atoms: _355  and  _356
REMARK  144  A    between atoms: _361  and  _363
REMARK  145  A    between atoms: _363  and  _364
REMARK  146  A    between atoms: _363  and  _366
REMARK  147  A    between atoms: _366  and  _367
REMARK  148  A    between atoms: _370  and  _372
REMARK  149  A    between atoms: _372  and  _373
REMARK  150  A    between atoms: _372  and  _375
REMARK  151  A    between atoms: _375  and  _376
REMARK  152  A    between atoms: _381  and  _383
REMARK  153  A    between atoms: _383  and  _384
REMARK  154  A    between atoms: _383  and  _386
REMARK  155  A    between atoms: _386  and  _387
REMARK  156  A    between atoms: _397  and  _399
REMARK  157  A    between atoms: _399  and  _400
REMARK  158  A    between atoms: _399  and  _402
REMARK  159  A    between atoms: _402  and  _403
REMARK  160  A    between atoms: _409  and  _411
REMARK  161  A    between atoms: _411  and  _412
REMARK  162  A    between atoms: _411  and  _414
REMARK  163  A    between atoms: _414  and  _415
REMARK  164  A    between atoms: _418  and  _420
REMARK  165  A    between atoms: _420  and  _421
REMARK  166  A    between atoms: _420  and  _423
REMARK  167  A    between atoms: _423  and  _424
REMARK  168  A    between atoms: _424  and  _425
REMARK  169  A    between atoms: _425  and  _426
REMARK  170  A    between atoms: _435  and  _437
REMARK  171  A    between atoms: _437  and  _438
REMARK  172  A    between atoms: _437  and  _440
REMARK  173  A    between atoms: _440  and  _441
REMARK  174  A    between atoms: _446  and  _448
REMARK  175  A    between atoms: _448  and  _449
REMARK  176  A    between atoms: _448  and  _451
REMARK  177  A    between atoms: _451  and  _452
REMARK  178  A    between atoms: _452  and  _453
REMARK  179  A    between atoms: _453  and  _454
REMARK  180  A    between atoms: _463  and  _465
REMARK  181  A    between atoms: _465  and  _466
REMARK  182  A    between atoms: _469  and  _471
REMARK  183  A    between atoms: _471  and  _472
REMARK  184  A    between atoms: _474  and  _476
REMARK  185  A    between atoms: _476  and  _477
REMARK  186  A    between atoms: _476  and  _479
REMARK  187  A    between atoms: _479  and  _480
REMARK  188  A    between atoms: _490  and  _492
REMARK  189  A    between atoms: _492  and  _493
REMARK  190  A    between atoms: _492  and  _495
REMARK  191  A    between atoms: _495  and  _496
REMARK  192  A    between atoms: _497  and  _499
REMARK  193  A    between atoms: _499  and  _500
REMARK  194  A    between atoms: _503  and  _505
REMARK  195  A    between atoms: _505  and  _506
REMARK  196  A    between atoms: _505  and  _508
REMARK  197  A    between atoms: _508  and  _509
REMARK  198  A    between atoms: _512  and  _514
REMARK  199  A    between atoms: _514  and  _515
REMARK  200  A    between atoms: _514  and  _517
REMARK  201  A    between atoms: _517  and  _518
REMARK  202  A    between atoms: _523  and  _524
REMARK  203  A    between atoms: _526  and  _528
REMARK  204  A    between atoms: _528  and  _529
REMARK  205  A    between atoms: _528  and  _531
REMARK  206  A    between atoms: _531  and  _532
REMARK  207  A    between atoms: _534  and  _536
REMARK  208  A    between atoms: _536  and  _537
REMARK  209  A    between atoms: _536  and  _539
REMARK  210  A    between atoms: _539  and  _540
REMARK  211  A    between atoms: _546  and  _548
REMARK  212  A    between atoms: _548  and  _549
REMARK  213  A    between atoms: _548  and  _551
REMARK  214  A    between atoms: _551  and  _552
REMARK  215  A    between atoms: _555  and  _557
REMARK  216  A    between atoms: _557  and  _558
REMARK  217  A    between atoms: _557  and  _560
REMARK  218  A    between atoms: _560  and  _561
REMARK  219  A    between atoms: _563  and  _565
REMARK  220  A    between atoms: _565  and  _566
REMARK  221  A    between atoms: _565  and  _568
REMARK  222  A    between atoms: _568  and  _569
REMARK  223  A    between atoms: _574  and  _576
REMARK  224  A    between atoms: _576  and  _577
REMARK  225  A    between atoms: _576  and  _579
REMARK  226  A    between atoms: _579  and  _580
REMARK  227  A    between atoms: _585  and  _587
REMARK  228  A    between atoms: _587  and  _588
REMARK  229  A    between atoms: _587  and  _590
REMARK  230  A    between atoms: _590  and  _591
REMARK  231  A    between atoms: _594  and  _596
REMARK  232  A    between atoms: _596  and  _597
REMARK  233  A    between atoms: _600  and  _602
REMARK  234  A    between atoms: _602  and  _603
REMARK  235  A    between atoms: _602  and  _605
REMARK  236  A    between atoms: _605  and  _606
REMARK  237  A    between atoms: _611  and  _612
REMARK  238  A    between atoms: _614  and  _616
REMARK  239  A    between atoms: _616  and  _617
REMARK  240  A    between atoms: _616  and  _619
REMARK  241  A    between atoms: _619  and  _620
REMARK  242  A    between atoms: _625  and  _626
REMARK  243  A    between atoms: _628  and  _630
REMARK  244  A    between atoms: _630  and  _631
REMARK  245  A    between atoms: _630  and  _633
REMARK  246  A    between atoms: _636  and  _638
REMARK  247  A    between atoms: _638  and  _639
REMARK  248  A    between atoms: _638  and  _641
REMARK  249  A    between atoms: _641  and  _642
REMARK  250  A    between atoms: _647  and  _649
REMARK  251  A    between atoms: _649  and  _650
REMARK  252  A    between atoms: _653  and  _655
REMARK  253  A    between atoms: _655  and  _656
REMARK  254  A    between atoms: _655  and  _658
REMARK  255  A    between atoms: _658  and  _659
REMARK  256  A    between atoms: _659  and  _660
REMARK  257  A    between atoms: _660  and  _661
REMARK  258  A    between atoms: _670  and  _672
REMARK  259  A    between atoms: _672  and  _673
REMARK  260  A    between atoms: _672  and  _675
REMARK  261  A    between atoms: _675  and  _676
REMARK  262  A    between atoms: _679  and  _681
REMARK  263  A    between atoms: _681  and  _682
REMARK  264  A    between atoms: _681  and  _684
REMARK  265  A    between atoms: _684  and  _685
REMARK  266  A    between atoms: _688  and  _690
REMARK  267  A    between atoms: _690  and  _691
REMARK  268  A    between atoms: _690  and  _693
REMARK  269  A    between atoms: _693  and  _694
REMARK                            x       y       z     vdW  Elec       q    Type
REMARK                         _______ _______ _______ _____ _____    ______ ____
ROOT
ATOM      1  O   HOH     1       1.780  14.700   8.423  0.00  0.00    +0.000 OA
ENDROOT
TORSDOF 0
REMARK  Name = ../refined-set-2016/1b3f/1b3f_pocket.pdb
REMARK  269 active torsions:
REMARK  status: ('A' for Active; 'I' for Inactive)
REMARK    1  A    between atoms: _1  and  _3
REMARK    2  A    between atoms: _3  and  _4
REMARK    3  A    between atoms: _3  and  _6
REMARK    4  A    between atoms: _6  and  _7
REMARK    5  A    between atoms: _12  and  _14
REMARK    6  A    between atoms: _14  and  _15
REMARK    7  A    between atoms: _17  and  _19
REMARK    8  A    between atoms: _19  and  _20
REMARK    9  A    between atoms: _19  and  _22
REMARK   10  A    between atoms: _22  and  _23
REMARK   11  A    between atoms: _25  and  _27
REMARK   12  A    between atoms: _27  and  _28
REMARK   13  A    between atoms: _27  and  _30
REMARK   14  A    between atoms: _30  and  _31
REMARK   15  A    between atoms: _31  and  _32
REMARK   16  A    between atoms: _37  and  _39
REMARK   17  A    between atoms: _39  and  _40
REMARK   18  A    between atoms: _39  and  _42
REMARK   19  A    between atoms: _42  and  _43
REMARK   20  A    between atoms: _46  and  _48
REMARK   21  A    between atoms: _48  and  _49
REMARK   22  A    between atoms: _48  and  _51
REMARK   23  A    between atoms: _52  and  _53
REMARK   24  A    between atoms: _56  and  _58
REMARK   25  A    between atoms: _58  and  _59
REMARK   26  A    between atoms: _61  and  _63
REMARK   27  A    between atoms: _63  and  _64
REMARK   28  A    between atoms: _63  and  _66
REMARK   29  A    between atoms: _70  and  _71
REMARK   30  A    between atoms: _76  and  _78
REMARK   31  A    between atoms: _78  and  _79
REMARK   32  A    between atoms: _78  and  _81
REMARK   33  A    between atoms: _81  and  _82
REMARK   34  A    between atoms: _82  and  _83
REMARK   35  A    between atoms: _86  and  _88
REMARK   36  A    between atoms: _88  and  _89
REMARK   37  A    between atoms: _88  and  _91
REMARK   38  A    between atoms: _91  and  _92
REMARK   39  A    between atoms: _94  and  _96
REMARK   40  A    between atoms: _96  and  _97
REMARK   41  A    between atoms: _96  and  _99
REMARK   42  A    between atoms: _99  and  _100
REMARK   43  A    between atoms: _105  and  _107
REMARK   44  A    between atoms: _107  and  _108
REMARK   45  A    between atoms: _107  and  _110
REMARK   46  A    between atoms: _110  and  _111
REMARK   47  A    between atoms: _111  and  _112
REMARK   48  A    between atoms: _112  and  _113
REMARK   49  A    between atoms: _123  and  _124
REMARK   50  A    between atoms: _129  and  _131
REMARK   51  A    between atoms: _131  and  _132
REMARK   52  A    between atoms: _131  and  _134
REMARK   53  A    between atoms: _134  and  _135
REMARK   54  A    between atoms: _140  and  _141
REMARK   55  A    between atoms: _143  and  _145
REMARK   56  A    between atoms: _145  and  _146
REMARK   57  A    between atoms: _145  and  _148
REMARK   58  A    between atoms: _148  and  _149
REMARK   59  A    between atoms: _154  and  _155
REMARK   60  A    between atoms: _157  and  _159
REMARK   61  A    between atoms: _159  and  _160
REMARK   62  A    between atoms: _159  and  _162
REMARK   63  A    between atoms: _165  and  _167
REMARK   64  A    between atoms: _167  and  _168
REMARK   65  A    between atoms: _167  and  _170
REMARK   66  A    between atoms: _170  and  _171
REMARK   67  A    between atoms: _177  and  _178
REMARK   68  A    between atoms: _183  and  _185
REMARK   69  A    between atoms: _185  and  _186
REMARK   70  A    between atoms: _185  and  _188
REMARK   71  A    between atoms: _188  and  _189
REMARK   72  A    between atoms: _191  and  _193
REMARK   73  A    between atoms: _193  and  _194
REMARK   74  A    between atoms: _193  and  _196
REMARK   75  A    between atoms: _196  and  _197
REMARK   76  A    between atoms: _197  and  _198
REMARK   77  A    between atoms: _201  and  _203
REMARK   78  A    between atoms: _203  and  _204
REMARK   79  A    between atoms: _203  and  _206
REMARK   80  A    between atoms: _206  and  _207
REMARK   81  A    between atoms: _212  and  _213
REMARK   82  A    between atoms: _215  and  _217
REMARK   83  A    between atoms: _217  and  _218
REMARK   84  A    between atoms: _217  and  _220
REMARK   85  A    between atoms: _220  and  _221
REMARK   86  A    between atoms: _226  and  _228
REMARK   87  A    between atoms: _228  and  _229
REMARK   88  A    between atoms: _228  and  _231
REMARK   89  A    between atoms: _231  and  _232
REMARK   90  A    between atoms: _237  and  _239
REMARK   91  A    between atoms: _239  and  _240
REMARK   92  A    between atoms: _239  and  _242
REMARK   93  A    between atoms: _242  and  _243
REMARK   94  A    between atoms: _243  and  _244
REMARK   95  A    between atoms: _246  and  _248
REMARK   96  A    between atoms: _248  and  _249
REMARK   97  A    between atoms: _248  and  _251
REMARK   98  A    between atoms: _251  and  _252
REMARK   99  A    between atoms: _257  and  _258
REMARK  100  A    between atoms: _260  and  _262
REMARK  101  A    between atoms: _262  and  _263
REMARK  102  A    between atoms: _262  and  _265
REMARK  103  A    between atoms: _265  and  _266
REMARK  104  A    between atoms: _269  and  _271
REMARK  105  A    between atoms: _271  and  _272
REMARK  106  A    between atoms: _271  and  _274
REMARK  107  A    between atoms: _274  and  _275
REMARK  108  A    between atoms: _275  and  _496
REMARK  109  A    between atoms: _276  and  _278
REMARK  110  A    between atoms: _278  and  _279
REMARK  111  A    between atoms: _278  and  _281
REMARK  112  A    between atoms: _281  and  _282
REMARK  113  A    between atoms: _285  and  _287
REMARK  114  A    between atoms: _287  and  _288
REMARK  115  A    between atoms: _287  and  _290
REMARK  116  A    between atoms: _290  and  _291
REMARK  117  A    between atoms: _296  and  _297
REMARK  118  A    between atoms: _299  and  _301
REMARK  119  A    between atoms: _301  and  _302
REMARK  120  A    between atoms: _301  and  _304
REMARK  121  A    between atoms: _304  and  _305
REMARK  122  A    between atoms: _310  and  _311
REMARK  123  A    between atoms: _313  and  _315
REMARK  124  A    between atoms: _315  and  _316
REMARK  125  A    between atoms: _315  and  _318
REMARK  126  A    between atoms: _318  and  _319
REMARK  127  A    between atoms: _319  and  _320
REMARK  128  A    between atoms: _323  and  _325
REMARK  129  A    between atoms: _325  and  _326
REMARK  130  A    between atoms: _325  and  _328
REMARK  131  A    between atoms: _328  and  _329
REMARK  132  A    between atoms: _329  and  _330
REMARK  133  A    between atoms: _330  and  _331
REMARK  134  A    between atoms: _331  and  _332
REMARK  135  A    between atoms: _336  and  _338
REMARK  136  A    between atoms: _338  and  _339
REMARK  137  A    between atoms: _338  and  _341
REMARK  138  A    between atoms: _341  and  _342
REMARK  139  A    between atoms: _347  and  _348
REMARK  140  A    between atoms: _350  and  _352
REMARK  141  A    between atoms: _352  and  _353
REMARK  142  A    between atoms: _352  and  _355
REMARK  143  A    between atoms: _355  and  _356
REMARK  144  A    between atoms: _361  and  _363
REMARK  145  A    between atoms: _363  and  _364
REMARK  146  A    between atoms: _363  and  _366
REMARK  147  A    between atoms: _366  and  _367
REMARK  148  A    between atoms: _370  and  _372
REMARK  149  A    between atoms: _372  and  _373
REMARK  150  A    between atoms: _372  and  _375
REMARK  151  A    between atoms: _375  and  _376
REMARK  152  A    between atoms: _381  and  _383
REMARK  153  A    between atoms: _383  and  _384
REMARK  154  A    between atoms: _383  and  _386
REMARK  155  A    between atoms: _386  and  _387
REMARK  156  A    between atoms: _397  and  _399
REMARK  157  A    between atoms: _399  and  _400
REMARK  158  A    between atoms: _399  and  _402
REMARK  159  A    between atoms: _402  and  _403
REMARK  160  A    between atoms: _409  and  _411
REMARK  161  A    between atoms: _411  and  _412
REMARK  162  A    between atoms: _411  and  _414
REMARK  163  A    between atoms: _414  and  _415
REMARK  164  A    between atoms: _418  and  _420
REMARK  165  A    between atoms: _420  and  _421
REMARK  166  A    between atoms: _420  and  _423
REMARK  167  A    between atoms: _423  and  _424
REMARK  168  A    between atoms: _424  and  _425
REMARK  169  A    between atoms: _425  and  _426
REMARK  170  A    between atoms: _435  and  _437
REMARK  171  A    between atoms: _437  and  _438
REMARK  172  A    between atoms: _437  and  _440
REMARK  173  A    between atoms: _440  and  _441
REMARK  174  A    between atoms: _446  and  _448
REMARK  175  A    between atoms: _448  and  _449
REMARK  176  A    between atoms: _448  and  _451
REMARK  177  A    between atoms: _451  and  _452
REMARK  178  A    between atoms: _452  and  _453
REMARK  179  A    between atoms: _453  and  _454
REMARK  180  A    between atoms: _463  and  _465
REMARK  181  A    between atoms: _465  and  _466
REMARK  182  A    between atoms: _469  and  _471
REMARK  183  A    between atoms: _471  and  _472
REMARK  184  A    between atoms: _474  and  _476
REMARK  185  A    between atoms: _476  and  _477
REMARK  186  A    between atoms: _476  and  _479
REMARK  187  A    between atoms: _479  and  _480
REMARK  188  A    between atoms: _490  and  _492
REMARK  189  A    between atoms: _492  and  _493
REMARK  190  A    between atoms: _492  and  _495
REMARK  191  A    between atoms: _495  and  _496
REMARK  192  A    between atoms: _497  and  _499
REMARK  193  A    between atoms: _499  and  _500
REMARK  194  A    between atoms: _503  and  _505
REMARK  195  A    between atoms: _505  and  _506
REMARK  196  A    between atoms: _505  and  _508
REMARK  197  A    between atoms: _508  and  _509
REMARK  198  A    between atoms: _512  and  _514
REMARK  199  A    between atoms: _514  and  _515
REMARK  200  A    between atoms: _514  and  _517
REMARK  201  A    between atoms: _517  and  _518
REMARK  202  A    between atoms: _523  and  _524
REMARK  203  A    between atoms: _526  and  _528
REMARK  204  A    between atoms: _528  and  _529
REMARK  205  A    between atoms: _528  and  _531
REMARK  206  A    between atoms: _531  and  _532
REMARK  207  A    between atoms: _534  and  _536
REMARK  208  A    between atoms: _536  and  _537
REMARK  209  A    between atoms: _536  and  _539
REMARK  210  A    between atoms: _539  and  _540
REMARK  211  A    between atoms: _546  and  _548
REMARK  212  A    between atoms: _548  and  _549
REMARK  213  A    between atoms: _548  and  _551
REMARK  214  A    between atoms: _551  and  _552
REMARK  215  A    between atoms: _555  and  _557
REMARK  216  A    between atoms: _557  and  _558
REMARK  217  A    between atoms: _557  and  _560
REMARK  218  A    between atoms: _560  and  _561
REMARK  219  A    between atoms: _563  and  _565
REMARK  220  A    between atoms: _565  and  _566
REMARK  221  A    between atoms: _565  and  _568
REMARK  222  A    between atoms: _568  and  _569
REMARK  223  A    between atoms: _574  and  _576
REMARK  224  A    between atoms: _576  and  _577
REMARK  225  A    between atoms: _576  and  _579
REMARK  226  A    between atoms: _579  and  _580
REMARK  227  A    between atoms: _585  and  _587
REMARK  228  A    between atoms: _587  and  _588
REMARK  229  A    between atoms: _587  and  _590
REMARK  230  A    between atoms: _590  and  _591
REMARK  231  A    between atoms: _594  and  _596
REMARK  232  A    between atoms: _596  and  _597
REMARK  233  A    between atoms: _600  and  _602
REMARK  234  A    between atoms: _602  and  _603
REMARK  235  A    between atoms: _602  and  _605
REMARK  236  A    between atoms: _605  and  _606
REMARK  237  A    between atoms: _611  and  _612
REMARK  238  A    between atoms: _614  and  _616
REMARK  239  A    between atoms: _616  and  _617
REMARK  240  A    between atoms: _616  and  _619
REMARK  241  A    between atoms: _619  and  _620
REMARK  242  A    between atoms: _625  and  _626
REMARK  243  A    between atoms: _628  and  _630
REMARK  244  A    between atoms: _630  and  _631
REMARK  245  A    between atoms: _630  and  _633
REMARK  246  A    between atoms: _636  and  _638
REMARK  247  A    between atoms: _638  and  _639
REMARK  248  A    between atoms: _638  and  _641
REMARK  249  A    between atoms: _641  and  _642
REMARK  250  A    between atoms: _647  and  _649
REMARK  251  A    between atoms: _649  and  _650
REMARK  252  A    between atoms: _653  and  _655
REMARK  253  A    between atoms: _655  and  _656
REMARK  254  A    between atoms: _655  and  _658
REMARK  255  A    between atoms: _658  and  _659
REMARK  256  A    between atoms: _659  and  _660
REMARK  257  A    between atoms: _660  and  _661
REMARK  258  A    between atoms: _670  and  _672
REMARK  259  A    between atoms: _672  and  _673
REMARK  260  A    between atoms: _672  and  _675
REMARK  261  A    between atoms: _675  and  _676
REMARK  262  A    between atoms: _679  and  _681
REMARK  263  A    between atoms: _681  and  _682
REMARK  264  A    between atoms: _681  and  _684
REMARK  265  A    between atoms: _684  and  _685
REMARK  266  A    between atoms: _688  and  _690
REMARK  267  A    between atoms: _690  and  _691
REMARK  268  A    between atoms: _690  and  _693
REMARK  269  A    between atoms: _693  and  _694
REMARK                            x       y       z     vdW  Elec       q    Type
REMARK                         _______ _______ _______ _____ _____    ______ ____
ROOT
ATOM      1  O   HOH     1      -4.295  19.659  16.166  0.00  0.00    +0.000 OA
ENDROOT
TORSDOF 0
REMARK  Name = ../refined-set-2016/1b3f/1b3f_pocket.pdb
REMARK  269 active torsions:
REMARK  status: ('A' for Active; 'I' for Inactive)
REMARK    1  A    between atoms: _1  and  _3
REMARK    2  A    between atoms: _3  and  _4
REMARK    3  A    between atoms: _3  and  _6
REMARK    4  A    between atoms: _6  and  _7
REMARK    5  A    between atoms: _12  and  _14
REMARK    6  A    between atoms: _14  and  _15
REMARK    7  A    between atoms: _17  and  _19
REMARK    8  A    between atoms: _19  and  _20
REMARK    9  A    between atoms: _19  and  _22
REMARK   10  A    between atoms: _22  and  _23
REMARK   11  A    between atoms: _25  and  _27
REMARK   12  A    between atoms: _27  and  _28
REMARK   13  A    between atoms: _27  and  _30
REMARK   14  A    between atoms: _30  and  _31
REMARK   15  A    between atoms: _31  and  _32
REMARK   16  A    between atoms: _37  and  _39
REMARK   17  A    between atoms: _39  and  _40
REMARK   18  A    between atoms: _39  and  _42
REMARK   19  A    between atoms: _42  and  _43
REMARK   20  A    between atoms: _46  and  _48
REMARK   21  A    between atoms: _48  and  _49
REMARK   22  A    between atoms: _48  and  _51
REMARK   23  A    between atoms: _52  and  _53
REMARK   24  A    between atoms: _56  and  _58
REMARK   25  A    between atoms: _58  and  _59
REMARK   26  A    between atoms: _61  and  _63
REMARK   27  A    between atoms: _63  and  _64
REMARK   28  A    between atoms: _63  and  _66
REMARK   29  A    between atoms: _70  and  _71
REMARK   30  A    between atoms: _76  and  _78
REMARK   31  A    between atoms: _78  and  _79
REMARK   32  A    between atoms: _78  and  _81
REMARK   33  A    between atoms: _81  and  _82
REMARK   34  A    between atoms: _82  and  _83
REMARK   35  A    between atoms: _86  and  _88
REMARK   36  A    between atoms: _88  and  _89
REMARK   37  A    between atoms: _88  and  _91
REMARK   38  A    between atoms: _91  and  _92
REMARK   39  A    between atoms: _94  and  _96
REMARK   40  A    between atoms: _96  and  _97
REMARK   41  A    between atoms: _96  and  _99
REMARK   42  A    between atoms: _99  and  _100
REMARK   43  A    between atoms: _105  and  _107
REMARK   44  A    between atoms: _107  and  _108
REMARK   45  A    between atoms: _107  and  _110
REMARK   46  A    between atoms: _110  and  _111
REMARK   47  A    between atoms: _111  and  _112
REMARK   48  A    between atoms: _112  and  _113
REMARK   49  A    between atoms: _123  and  _124
REMARK   50  A    between atoms: _129  and  _131
REMARK   51  A    between atoms: _131  and  _132
REMARK   52  A    between atoms: _131  and  _134
REMARK   53  A    between atoms: _134  and  _135
REMARK   54  A    between atoms: _140  and  _141
REMARK   55  A    between atoms: _143  and  _145
REMARK   56  A    between atoms: _145  and  _146
REMARK   57  A    between atoms: _145  and  _148
REMARK   58  A    between atoms: _148  and  _149
REMARK   59  A    between atoms: _154  and  _155
REMARK   60  A    between atoms: _157  and  _159
REMARK   61  A    between atoms: _159  and  _160
REMARK   62  A    between atoms: _159  and  _162
REMARK   63  A    between atoms: _165  and  _167
REMARK   64  A    between atoms: _167  and  _168
REMARK   65  A    between atoms: _167  and  _170
REMARK   66  A    between atoms: _170  and  _171
REMARK   67  A    between atoms: _177  and  _178
REMARK   68  A    between atoms: _183  and  _185
REMARK   69  A    between atoms: _185  and  _186
REMARK   70  A    between atoms: _185  and  _188
REMARK   71  A    between atoms: _188  and  _189
REMARK   72  A    between atoms: _191  and  _193
REMARK   73  A    between atoms: _193  and  _194
REMARK   74  A    between atoms: _193  and  _196
REMARK   75  A    between atoms: _196  and  _197
REMARK   76  A    between atoms: _197  and  _198
REMARK   77  A    between atoms: _201  and  _203
REMARK   78  A    between atoms: _203  and  _204
REMARK   79  A    between atoms: _203  and  _206
REMARK   80  A    between atoms: _206  and  _207
REMARK   81  A    between atoms: _212  and  _213
REMARK   82  A    between atoms: _215  and  _217
REMARK   83  A    between atoms: _217  and  _218
REMARK   84  A    between atoms: _217  and  _220
REMARK   85  A    between atoms: _220  and  _221
REMARK   86  A    between atoms: _226  and  _228
REMARK   87  A    between atoms: _228  and  _229
REMARK   88  A    between atoms: _228  and  _231
REMARK   89  A    between atoms: _231  and  _232
REMARK   90  A    between atoms: _237  and  _239
REMARK   91  A    between atoms: _239  and  _240
REMARK   92  A    between atoms: _239  and  _242
REMARK   93  A    between atoms: _242  and  _243
REMARK   94  A    between atoms: _243  and  _244
REMARK   95  A    between atoms: _246  and  _248
REMARK   96  A    between atoms: _248  and  _249
REMARK   97  A    between atoms: _248  and  _251
REMARK   98  A    between atoms: _251  and  _252
REMARK   99  A    between atoms: _257  and  _258
REMARK  100  A    between atoms: _260  and  _262
REMARK  101  A    between atoms: _262  and  _263
REMARK  102  A    between atoms: _262  and  _265
REMARK  103  A    between atoms: _265  and  _266
REMARK  104  A    between atoms: _269  and  _271
REMARK  105  A    between atoms: _271  and  _272
REMARK  106  A    between atoms: _271  and  _274
REMARK  107  A    between atoms: _274  and  _275
REMARK  108  A    between atoms: _275  and  _496
REMARK  109  A    between atoms: _276  and  _278
REMARK  110  A    between atoms: _278  and  _279
REMARK  111  A    between atoms: _278  and  _281
REMARK  112  A    between atoms: _281  and  _282
REMARK  113  A    between atoms: _285  and  _287
REMARK  114  A    between atoms: _287  and  _288
REMARK  115  A    between atoms: _287  and  _290
REMARK  116  A    between atoms: _290  and  _291
REMARK  117  A    between atoms: _296  and  _297
REMARK  118  A    between atoms: _299  and  _301
REMARK  119  A    between atoms: _301  and  _302
REMARK  120  A    between atoms: _301  and  _304
REMARK  121  A    between atoms: _304  and  _305
REMARK  122  A    between atoms: _310  and  _311
REMARK  123  A    between atoms: _313  and  _315
REMARK  124  A    between atoms: _315  and  _316
REMARK  125  A    between atoms: _315  and  _318
REMARK  126  A    between atoms: _318  and  _319
REMARK  127  A    between atoms: _319  and  _320
REMARK  128  A    between atoms: _323  and  _325
REMARK  129  A    between atoms: _325  and  _326
REMARK  130  A    between atoms: _325  and  _328
REMARK  131  A    between atoms: _328  and  _329
REMARK  132  A    between atoms: _329  and  _330
REMARK  133  A    between atoms: _330  and  _331
REMARK  134  A    between atoms: _331  and  _332
REMARK  135  A    between atoms: _336  and  _338
REMARK  136  A    between atoms: _338  and  _339
REMARK  137  A    between atoms: _338  and  _341
REMARK  138  A    between atoms: _341  and  _342
REMARK  139  A    between atoms: _347  and  _348
REMARK  140  A    between atoms: _350  and  _352
REMARK  141  A    between atoms: _352  and  _353
REMARK  142  A    between atoms: _352  and  _355
REMARK  143  A    between atoms: _355  and  _356
REMARK  144  A    between atoms: _361  and  _363
REMARK  145  A    between atoms: _363  and  _364
REMARK  146  A    between atoms: _363  and  _366
REMARK  147  A    between atoms: _366  and  _367
REMARK  148  A    between atoms: _370  and  _372
REMARK  149  A    between atoms: _372  and  _373
REMARK  150  A    between atoms: _372  and  _375
REMARK  151  A    between atoms: _375  and  _376
REMARK  152  A    between atoms: _381  and  _383
REMARK  153  A    between atoms: _383  and  _384
REMARK  154  A    between atoms: _383  and  _386
REMARK  155  A    between atoms: _386  and  _387
REMARK  156  A    between atoms: _397  and  _399
REMARK  157  A    between atoms: _399  and  _400
REMARK  158  A    between atoms: _399  and  _402
REMARK  159  A    between atoms: _402  and  _403
REMARK  160  A    between atoms: _409  and  _411
REMARK  161  A    between atoms: _411  and  _412
REMARK  162  A    between atoms: _411  and  _414
REMARK  163  A    between atoms: _414  and  _415
REMARK  164  A    between atoms: _418  and  _420
REMARK  165  A    between atoms: _420  and  _421
REMARK  166  A    between atoms: _420  and  _423
REMARK  167  A    between atoms: _423  and  _424
REMARK  168  A    between atoms: _424  and  _425
REMARK  169  A    between atoms: _425  and  _426
REMARK  170  A    between atoms: _435  and  _437
REMARK  171  A    between atoms: _437  and  _438
REMARK  172  A    between atoms: _437  and  _440
REMARK  173  A    between atoms: _440  and  _441
REMARK  174  A    between atoms: _446  and  _448
REMARK  175  A    between atoms: _448  and  _449
REMARK  176  A    between atoms: _448  and  _451
REMARK  177  A    between atoms: _451  and  _452
REMARK  178  A    between atoms: _452  and  _453
REMARK  179  A    between atoms: _453  and  _454
REMARK  180  A    between atoms: _463  and  _465
REMARK  181  A    between atoms: _465  and  _466
REMARK  182  A    between atoms: _469  and  _471
REMARK  183  A    between atoms: _471  and  _472
REMARK  184  A    between atoms: _474  and  _476
REMARK  185  A    between atoms: _476  and  _477
REMARK  186  A    between atoms: _476  and  _479
REMARK  187  A    between atoms: _479  and  _480
REMARK  188  A    between atoms: _490  and  _492
REMARK  189  A    between atoms: _492  and  _493
REMARK  190  A    between atoms: _492  and  _495
REMARK  191  A    between atoms: _495  and  _496
REMARK  192  A    between atoms: _497  and  _499
REMARK  193  A    between atoms: _499  and  _500
REMARK  194  A    between atoms: _503  and  _505
REMARK  195  A    between atoms: _505  and  _506
REMARK  196  A    between atoms: _505  and  _508
REMARK  197  A    between atoms: _508  and  _509
REMARK  198  A    between atoms: _512  and  _514
REMARK  199  A    between atoms: _514  and  _515
REMARK  200  A    between atoms: _514  and  _517
REMARK  201  A    between atoms: _517  and  _518
REMARK  202  A    between atoms: _523  and  _524
REMARK  203  A    between atoms: _526  and  _528
REMARK  204  A    between atoms: _528  and  _529
REMARK  205  A    between atoms: _528  and  _531
REMARK  206  A    between atoms: _531  and  _532
REMARK  207  A    between atoms: _534  and  _536
REMARK  208  A    between atoms: _536  and  _537
REMARK  209  A    between atoms: _536  and  _539
REMARK  210  A    between atoms: _539  and  _540
REMARK  211  A    between atoms: _546  and  _548
REMARK  212  A    between atoms: _548  and  _549
REMARK  213  A    between atoms: _548  and  _551
REMARK  214  A    between atoms: _551  and  _552
REMARK  215  A    between atoms: _555  and  _557
REMARK  216  A    between atoms: _557  and  _558
REMARK  217  A    between atoms: _557  and  _560
REMARK  218  A    between atoms: _560  and  _561
REMARK  219  A    between atoms: _563  and  _565
REMARK  220  A    between atoms: _565  and  _566
REMARK  221  A    between atoms: _565  and  _568
REMARK  222  A    between atoms: _568  and  _569
REMARK  223  A    between atoms: _574  and  _576
REMARK  224  A    between atoms: _576  and  _577
REMARK  225  A    between atoms: _576  and  _579
REMARK  226  A    between atoms: _579  and  _580
REMARK  227  A    between atoms: _585  and  _587
REMARK  228  A    between atoms: _587  and  _588
REMARK  229  A    between atoms: _587  and  _590
REMARK  230  A    between atoms: _590  and  _591
REMARK  231  A    between atoms: _594  and  _596
REMARK  232  A    between atoms: _596  and  _597
REMARK  233  A    between atoms: _600  and  _602
REMARK  234  A    between atoms: _602  and  _603
REMARK  235  A    between atoms: _602  and  _605
REMARK  236  A    between atoms: _605  and  _606
REMARK  237  A    between atoms: _611  and  _612
REMARK  238  A    between atoms: _614  and  _616
REMARK  239  A    between atoms: _616  and  _617
REMARK  240  A    between atoms: _616  and  _619
REMARK  241  A    between atoms: _619  and  _620
REMARK  242  A    between atoms: _625  and  _626
REMARK  243  A    between atoms: _628  and  _630
REMARK  244  A    between atoms: _630  and  _631
REMARK  245  A    between atoms: _630  and  _633
REMARK  246  A    between atoms: _636  and  _638
REMARK  247  A    between atoms: _638  and  _639
REMARK  248  A    between atoms: _638  and  _641
REMARK  249  A    between atoms: _641  and  _642
REMARK  250  A    between atoms: _647  and  _649
REMARK  251  A    between atoms: _649  and  _650
REMARK  252  A    between atoms: _653  and  _655
REMARK  253  A    between atoms: _655  and  _656
REMARK  254  A    between atoms: _655  and  _658
REMARK  255  A    between atoms: _658  and  _659
REMARK  256  A    between atoms: _659  and  _660
REMARK  257  A    between atoms: _660  and  _661
REMARK  258  A    between atoms: _670  and  _672
REMARK  259  A    between atoms: _672  and  _673
REMARK  260  A    between atoms: _672  and  _675
REMARK  261  A    between atoms: _675  and  _676
REMARK  262  A    between atoms: _679  and  _681
REMARK  263  A    between atoms: _681  and  _682
REMARK  264  A    between atoms: _681  and  _684
REMARK  265  A    between atoms: _684  and  _685
REMARK  266  A    between atoms: _688  and  _690
REMARK  267  A    between atoms: _690  and  _691
REMARK  268  A    between atoms: _690  and  _693
REMARK  269  A    between atoms: _693  and  _694
REMARK                            x       y       z     vdW  Elec       q    Type
REMARK                         _______ _______ _______ _____ _____    ______ ____
ROOT
ATOM      1  O   HOH     1       1.557  14.545  11.275  0.00  0.00    +0.000 OA
ENDROOT
TORSDOF 0
REMARK  Name = ../refined-set-2016/1b3f/1b3f_pocket.pdb
REMARK  269 active torsions:
REMARK  status: ('A' for Active; 'I' for Inactive)
REMARK    1  A    between atoms: _1  and  _3
REMARK    2  A    between atoms: _3  and  _4
REMARK    3  A    between atoms: _3  and  _6
REMARK    4  A    between atoms: _6  and  _7
REMARK    5  A    between atoms: _12  and  _14
REMARK    6  A    between atoms: _14  and  _15
REMARK    7  A    between atoms: _17  and  _19
REMARK    8  A    between atoms: _19  and  _20
REMARK    9  A    between atoms: _19  and  _22
REMARK   10  A    between atoms: _22  and  _23
REMARK   11  A    between atoms: _25  and  _27
REMARK   12  A    between atoms: _27  and  _28
REMARK   13  A    between atoms: _27  and  _30
REMARK   14  A    between atoms: _30  and  _31
REMARK   15  A    between atoms: _31  and  _32
REMARK   16  A    between atoms: _37  and  _39
REMARK   17  A    between atoms: _39  and  _40
REMARK   18  A    between atoms: _39  and  _42
REMARK   19  A    between atoms: _42  and  _43
REMARK   20  A    between atoms: _46  and  _48
REMARK   21  A    between atoms: _48  and  _49
REMARK   22  A    between atoms: _48  and  _51
REMARK   23  A    between atoms: _52  and  _53
REMARK   24  A    between atoms: _56  and  _58
REMARK   25  A    between atoms: _58  and  _59
REMARK   26  A    between atoms: _61  and  _63
REMARK   27  A    between atoms: _63  and  _64
REMARK   28  A    between atoms: _63  and  _66
REMARK   29  A    between atoms: _70  and  _71
REMARK   30  A    between atoms: _76  and  _78
REMARK   31  A    between atoms: _78  and  _79
REMARK   32  A    between atoms: _78  and  _81
REMARK   33  A    between atoms: _81  and  _82
REMARK   34  A    between atoms: _82  and  _83
REMARK   35  A    between atoms: _86  and  _88
REMARK   36  A    between atoms: _88  and  _89
REMARK   37  A    between atoms: _88  and  _91
REMARK   38  A    between atoms: _91  and  _92
REMARK   39  A    between atoms: _94  and  _96
REMARK   40  A    between atoms: _96  and  _97
REMARK   41  A    between atoms: _96  and  _99
REMARK   42  A    between atoms: _99  and  _100
REMARK   43  A    between atoms: _105  and  _107
REMARK   44  A    between atoms: _107  and  _108
REMARK   45  A    between atoms: _107  and  _110
REMARK   46  A    between atoms: _110  and  _111
REMARK   47  A    between atoms: _111  and  _112
REMARK   48  A    between atoms: _112  and  _113
REMARK   49  A    between atoms: _123  and  _124
REMARK   50  A    between atoms: _129  and  _131
REMARK   51  A    between atoms: _131  and  _132
REMARK   52  A    between atoms: _131  and  _134
REMARK   53  A    between atoms: _134  and  _135
REMARK   54  A    between atoms: _140  and  _141
REMARK   55  A    between atoms: _143  and  _145
REMARK   56  A    between atoms: _145  and  _146
REMARK   57  A    between atoms: _145  and  _148
REMARK   58  A    between atoms: _148  and  _149
REMARK   59  A    between atoms: _154  and  _155
REMARK   60  A    between atoms: _157  and  _159
REMARK   61  A    between atoms: _159  and  _160
REMARK   62  A    between atoms: _159  and  _162
REMARK   63  A    between atoms: _165  and  _167
REMARK   64  A    between atoms: _167  and  _168
REMARK   65  A    between atoms: _167  and  _170
REMARK   66  A    between atoms: _170  and  _171
REMARK   67  A    between atoms: _177  and  _178
REMARK   68  A    between atoms: _183  and  _185
REMARK   69  A    between atoms: _185  and  _186
REMARK   70  A    between atoms: _185  and  _188
REMARK   71  A    between atoms: _188  and  _189
REMARK   72  A    between atoms: _191  and  _193
REMARK   73  A    between atoms: _193  and  _194
REMARK   74  A    between atoms: _193  and  _196
REMARK   75  A    between atoms: _196  and  _197
REMARK   76  A    between atoms: _197  and  _198
REMARK   77  A    between atoms: _201  and  _203
REMARK   78  A    between atoms: _203  and  _204
REMARK   79  A    between atoms: _203  and  _206
REMARK   80  A    between atoms: _206  and  _207
REMARK   81  A    between atoms: _212  and  _213
REMARK   82  A    between atoms: _215  and  _217
REMARK   83  A    between atoms: _217  and  _218
REMARK   84  A    between atoms: _217  and  _220
REMARK   85  A    between atoms: _220  and  _221
REMARK   86  A    between atoms: _226  and  _228
REMARK   87  A    between atoms: _228  and  _229
REMARK   88  A    between atoms: _228  and  _231
REMARK   89  A    between atoms: _231  and  _232
REMARK   90  A    between atoms: _237  and  _239
REMARK   91  A    between atoms: _239  and  _240
REMARK   92  A    between atoms: _239  and  _242
REMARK   93  A    between atoms: _242  and  _243
REMARK   94  A    between atoms: _243  and  _244
REMARK   95  A    between atoms: _246  and  _248
REMARK   96  A    between atoms: _248  and  _249
REMARK   97  A    between atoms: _248  and  _251
REMARK   98  A    between atoms: _251  and  _252
REMARK   99  A    between atoms: _257  and  _258
REMARK  100  A    between atoms: _260  and  _262
REMARK  101  A    between atoms: _262  and  _263
REMARK  102  A    between atoms: _262  and  _265
REMARK  103  A    between atoms: _265  and  _266
REMARK  104  A    between atoms: _269  and  _271
REMARK  105  A    between atoms: _271  and  _272
REMARK  106  A    between atoms: _271  and  _274
REMARK  107  A    between atoms: _274  and  _275
REMARK  108  A    between atoms: _275  and  _496
REMARK  109  A    between atoms: _276  and  _278
REMARK  110  A    between atoms: _278  and  _279
REMARK  111  A    between atoms: _278  and  _281
REMARK  112  A    between atoms: _281  and  _282
REMARK  113  A    between atoms: _285  and  _287
REMARK  114  A    between atoms: _287  and  _288
REMARK  115  A    between atoms: _287  and  _290
REMARK  116  A    between atoms: _290  and  _291
REMARK  117  A    between atoms: _296  and  _297
REMARK  118  A    between atoms: _299  and  _301
REMARK  119  A    between atoms: _301  and  _302
REMARK  120  A    between atoms: _301  and  _304
REMARK  121  A    between atoms: _304  and  _305
REMARK  122  A    between atoms: _310  and  _311
REMARK  123  A    between atoms: _313  and  _315
REMARK  124  A    between atoms: _315  and  _316
REMARK  125  A    between atoms: _315  and  _318
REMARK  126  A    between atoms: _318  and  _319
REMARK  127  A    between atoms: _319  and  _320
REMARK  128  A    between atoms: _323  and  _325
REMARK  129  A    between atoms: _325  and  _326
REMARK  130  A    between atoms: _325  and  _328
REMARK  131  A    between atoms: _328  and  _329
REMARK  132  A    between atoms: _329  and  _330
REMARK  133  A    between atoms: _330  and  _331
REMARK  134  A    between atoms: _331  and  _332
REMARK  135  A    between atoms: _336  and  _338
REMARK  136  A    between atoms: _338  and  _339
REMARK  137  A    between atoms: _338  and  _341
REMARK  138  A    between atoms: _341  and  _342
REMARK  139  A    between atoms: _347  and  _348
REMARK  140  A    between atoms: _350  and  _352
REMARK  141  A    between atoms: _352  and  _353
REMARK  142  A    between atoms: _352  and  _355
REMARK  143  A    between atoms: _355  and  _356
REMARK  144  A    between atoms: _361  and  _363
REMARK  145  A    between atoms: _363  and  _364
REMARK  146  A    between atoms: _363  and  _366
REMARK  147  A    between atoms: _366  and  _367
REMARK  148  A    between atoms: _370  and  _372
REMARK  149  A    between atoms: _372  and  _373
REMARK  150  A    between atoms: _372  and  _375
REMARK  151  A    between atoms: _375  and  _376
REMARK  152  A    between atoms: _381  and  _383
REMARK  153  A    between atoms: _383  and  _384
REMARK  154  A    between atoms: _383  and  _386
REMARK  155  A    between atoms: _386  and  _387
REMARK  156  A    between atoms: _397  and  _399
REMARK  157  A    between atoms: _399  and  _400
REMARK  158  A    between atoms: _399  and  _402
REMARK  159  A    between atoms: _402  and  _403
REMARK  160  A    between atoms: _409  and  _411
REMARK  161  A    between atoms: _411  and  _412
REMARK  162  A    between atoms: _411  and  _414
REMARK  163  A    between atoms: _414  and  _415
REMARK  164  A    between atoms: _418  and  _420
REMARK  165  A    between atoms: _420  and  _421
REMARK  166  A    between atoms: _420  and  _423
REMARK  167  A    between atoms: _423  and  _424
REMARK  168  A    between atoms: _424  and  _425
REMARK  169  A    between atoms: _425  and  _426
REMARK  170  A    between atoms: _435  and  _437
REMARK  171  A    between atoms: _437  and  _438
REMARK  172  A    between atoms: _437  and  _440
REMARK  173  A    between atoms: _440  and  _441
REMARK  174  A    between atoms: _446  and  _448
REMARK  175  A    between atoms: _448  and  _449
REMARK  176  A    between atoms: _448  and  _451
REMARK  177  A    between atoms: _451  and  _452
REMARK  178  A    between atoms: _452  and  _453
REMARK  179  A    between atoms: _453  and  _454
REMARK  180  A    between atoms: _463  and  _465
REMARK  181  A    between atoms: _465  and  _466
REMARK  182  A    between atoms: _469  and  _471
REMARK  183  A    between atoms: _471  and  _472
REMARK  184  A    between atoms: _474  and  _476
REMARK  185  A    between atoms: _476  and  _477
REMARK  186  A    between atoms: _476  and  _479
REMARK  187  A    between atoms: _479  and  _480
REMARK  188  A    between atoms: _490  and  _492
REMARK  189  A    between atoms: _492  and  _493
REMARK  190  A    between atoms: _492  and  _495
REMARK  191  A    between atoms: _495  and  _496
REMARK  192  A    between atoms: _497  and  _499
REMARK  193  A    between atoms: _499  and  _500
REMARK  194  A    between atoms: _503  and  _505
REMARK  195  A    between atoms: _505  and  _506
REMARK  196  A    between atoms: _505  and  _508
REMARK  197  A    between atoms: _508  and  _509
REMARK  198  A    between atoms: _512  and  _514
REMARK  199  A    between atoms: _514  and  _515
REMARK  200  A    between atoms: _514  and  _517
REMARK  201  A    between atoms: _517  and  _518
REMARK  202  A    between atoms: _523  and  _524
REMARK  203  A    between atoms: _526  and  _528
REMARK  204  A    between atoms: _528  and  _529
REMARK  205  A    between atoms: _528  and  _531
REMARK  206  A    between atoms: _531  and  _532
REMARK  207  A    between atoms: _534  and  _536
REMARK  208  A    between atoms: _536  and  _537
REMARK  209  A    between atoms: _536  and  _539
REMARK  210  A    between atoms: _539  and  _540
REMARK  211  A    between atoms: _546  and  _548
REMARK  212  A    between atoms: _548  and  _549
REMARK  213  A    between atoms: _548  and  _551
REMARK  214  A    between atoms: _551  and  _552
REMARK  215  A    between atoms: _555  and  _557
REMARK  216  A    between atoms: _557  and  _558
REMARK  217  A    between atoms: _557  and  _560
REMARK  218  A    between atoms: _560  and  _561
REMARK  219  A    between atoms: _563  and  _565
REMARK  220  A    between atoms: _565  and  _566
REMARK  221  A    between atoms: _565  and  _568
REMARK  222  A    between atoms: _568  and  _569
REMARK  223  A    between atoms: _574  and  _576
REMARK  224  A    between atoms: _576  and  _577
REMARK  225  A    between atoms: _576  and  _579
REMARK  226  A    between atoms: _579  and  _580
REMARK  227  A    between atoms: _585  and  _587
REMARK  228  A    between atoms: _587  and  _588
REMARK  229  A    between atoms: _587  and  _590
REMARK  230  A    between atoms: _590  and  _591
REMARK  231  A    between atoms: _594  and  _596
REMARK  232  A    between atoms: _596  and  _597
REMARK  233  A    between atoms: _600  and  _602
REMARK  234  A    between atoms: _602  and  _603
REMARK  235  A    between atoms: _602  and  _605
REMARK  236  A    between atoms: _605  and  _606
REMARK  237  A    between atoms: _611  and  _612
REMARK  238  A    between atoms: _614  and  _616
REMARK  239  A    between atoms: _616  and  _617
REMARK  240  A    between atoms: _616  and  _619
REMARK  241  A    between atoms: _619  and  _620
REMARK  242  A    between atoms: _625  and  _626
REMARK  243  A    between atoms: _628  and  _630
REMARK  244  A    between atoms: _630  and  _631
REMARK  245  A    between atoms: _630  and  _633
REMARK  246  A    between atoms: _636  and  _638
REMARK  247  A    between atoms: _638  and  _639
REMARK  248  A    between atoms: _638  and  _641
REMARK  249  A    between atoms: _641  and  _642
REMARK  250  A    between atoms: _647  and  _649
REMARK  251  A    between atoms: _649  and  _650
REMARK  252  A    between atoms: _653  and  _655
REMARK  253  A    between atoms: _655  and  _656
REMARK  254  A    between atoms: _655  and  _658
REMARK  255  A    between atoms: _658  and  _659
REMARK  256  A    between atoms: _659  and  _660
REMARK  257  A    between atoms: _660  and  _661
REMARK  258  A    between atoms: _670  and  _672
REMARK  259  A    between atoms: _672  and  _673
REMARK  260  A    between atoms: _672  and  _675
REMARK  261  A    between atoms: _675  and  _676
REMARK  262  A    between atoms: _679  and  _681
REMARK  263  A    between atoms: _681  and  _682
REMARK  264  A    between atoms: _681  and  _684
REMARK  265  A    between atoms: _684  and  _685
REMARK  266  A    between atoms: _688  and  _690
REMARK  267  A    between atoms: _690  and  _691
REMARK  268  A    between atoms: _690  and  _693
REMARK  269  A    between atoms: _693  and  _694
REMARK                            x       y       z     vdW  Elec       q    Type
REMARK                         _______ _______ _______ _____ _____    ______ ____
ROOT
ATOM      1  O   HOH     1      -7.271  23.736  12.310  0.00  0.00    +0.000 OA
ENDROOT
TORSDOF 0
REMARK  Name = ../refined-set-2016/1b3f/1b3f_pocket.pdb
REMARK  269 active torsions:
REMARK  status: ('A' for Active; 'I' for Inactive)
REMARK    1  A    between atoms: _1  and  _3
REMARK    2  A    between atoms: _3  and  _4
REMARK    3  A    between atoms: _3  and  _6
REMARK    4  A    between atoms: _6  and  _7
REMARK    5  A    between atoms: _12  and  _14
REMARK    6  A    between atoms: _14  and  _15
REMARK    7  A    between atoms: _17  and  _19
REMARK    8  A    between atoms: _19  and  _20
REMARK    9  A    between atoms: _19  and  _22
REMARK   10  A    between atoms: _22  and  _23
REMARK   11  A    between atoms: _25  and  _27
REMARK   12  A    between atoms: _27  and  _28
REMARK   13  A    between atoms: _27  and  _30
REMARK   14  A    between atoms: _30  and  _31
REMARK   15  A    between atoms: _31  and  _32
REMARK   16  A    between atoms: _37  and  _39
REMARK   17  A    between atoms: _39  and  _40
REMARK   18  A    between atoms: _39  and  _42
REMARK   19  A    between atoms: _42  and  _43
REMARK   20  A    between atoms: _46  and  _48
REMARK   21  A    between atoms: _48  and  _49
REMARK   22  A    between atoms: _48  and  _51
REMARK   23  A    between atoms: _52  and  _53
REMARK   24  A    between atoms: _56  and  _58
REMARK   25  A    between atoms: _58  and  _59
REMARK   26  A    between atoms: _61  and  _63
REMARK   27  A    between atoms: _63  and  _64
REMARK   28  A    between atoms: _63  and  _66
REMARK   29  A    between atoms: _70  and  _71
REMARK   30  A    between atoms: _76  and  _78
REMARK   31  A    between atoms: _78  and  _79
REMARK   32  A    between atoms: _78  and  _81
REMARK   33  A    between atoms: _81  and  _82
REMARK   34  A    between atoms: _82  and  _83
REMARK   35  A    between atoms: _86  and  _88
REMARK   36  A    between atoms: _88  and  _89
REMARK   37  A    between atoms: _88  and  _91
REMARK   38  A    between atoms: _91  and  _92
REMARK   39  A    between atoms: _94  and  _96
REMARK   40  A    between atoms: _96  and  _97
REMARK   41  A    between atoms: _96  and  _99
REMARK   42  A    between atoms: _99  and  _100
REMARK   43  A    between atoms: _105  and  _107
REMARK   44  A    between atoms: _107  and  _108
REMARK   45  A    between atoms: _107  and  _110
REMARK   46  A    between atoms: _110  and  _111
REMARK   47  A    between atoms: _111  and  _112
REMARK   48  A    between atoms: _112  and  _113
REMARK   49  A    between atoms: _123  and  _124
REMARK   50  A    between atoms: _129  and  _131
REMARK   51  A    between atoms: _131  and  _132
REMARK   52  A    between atoms: _131  and  _134
REMARK   53  A    between atoms: _134  and  _135
REMARK   54  A    between atoms: _140  and  _141
REMARK   55  A    between atoms: _143  and  _145
REMARK   56  A    between atoms: _145  and  _146
REMARK   57  A    between atoms: _145  and  _148
REMARK   58  A    between atoms: _148  and  _149
REMARK   59  A    between atoms: _154  and  _155
REMARK   60  A    between atoms: _157  and  _159
REMARK   61  A    between atoms: _159  and  _160
REMARK   62  A    between atoms: _159  and  _162
REMARK   63  A    between atoms: _165  and  _167
REMARK   64  A    between atoms: _167  and  _168
REMARK   65  A    between atoms: _167  and  _170
REMARK   66  A    between atoms: _170  and  _171
REMARK   67  A    between atoms: _177  and  _178
REMARK   68  A    between atoms: _183  and  _185
REMARK   69  A    between atoms: _185  and  _186
REMARK   70  A    between atoms: _185  and  _188
REMARK   71  A    between atoms: _188  and  _189
REMARK   72  A    between atoms: _191  and  _193
REMARK   73  A    between atoms: _193  and  _194
REMARK   74  A    between atoms: _193  and  _196
REMARK   75  A    between atoms: _196  and  _197
REMARK   76  A    between atoms: _197  and  _198
REMARK   77  A    between atoms: _201  and  _203
REMARK   78  A    between atoms: _203  and  _204
REMARK   79  A    between atoms: _203  and  _206
REMARK   80  A    between atoms: _206  and  _207
REMARK   81  A    between atoms: _212  and  _213
REMARK   82  A    between atoms: _215  and  _217
REMARK   83  A    between atoms: _217  and  _218
REMARK   84  A    between atoms: _217  and  _220
REMARK   85  A    between atoms: _220  and  _221
REMARK   86  A    between atoms: _226  and  _228
REMARK   87  A    between atoms: _228  and  _229
REMARK   88  A    between atoms: _228  and  _231
REMARK   89  A    between atoms: _231  and  _232
REMARK   90  A    between atoms: _237  and  _239
REMARK   91  A    between atoms: _239  and  _240
REMARK   92  A    between atoms: _239  and  _242
REMARK   93  A    between atoms: _242  and  _243
REMARK   94  A    between atoms: _243  and  _244
REMARK   95  A    between atoms: _246  and  _248
REMARK   96  A    between atoms: _248  and  _249
REMARK   97  A    between atoms: _248  and  _251
REMARK   98  A    between atoms: _251  and  _252
REMARK   99  A    between atoms: _257  and  _258
REMARK  100  A    between atoms: _260  and  _262
REMARK  101  A    between atoms: _262  and  _263
REMARK  102  A    between atoms: _262  and  _265
REMARK  103  A    between atoms: _265  and  _266
REMARK  104  A    between atoms: _269  and  _271
REMARK  105  A    between atoms: _271  and  _272
REMARK  106  A    between atoms: _271  and  _274
REMARK  107  A    between atoms: _274  and  _275
REMARK  108  A    between atoms: _275  and  _496
REMARK  109  A    between atoms: _276  and  _278
REMARK  110  A    between atoms: _278  and  _279
REMARK  111  A    between atoms: _278  and  _281
REMARK  112  A    between atoms: _281  and  _282
REMARK  113  A    between atoms: _285  and  _287
REMARK  114  A    between atoms: _287  and  _288
REMARK  115  A    between atoms: _287  and  _290
REMARK  116  A    between atoms: _290  and  _291
REMARK  117  A    between atoms: _296  and  _297
REMARK  118  A    between atoms: _299  and  _301
REMARK  119  A    between atoms: _301  and  _302
REMARK  120  A    between atoms: _301  and  _304
REMARK  121  A    between atoms: _304  and  _305
REMARK  122  A    between atoms: _310  and  _311
REMARK  123  A    between atoms: _313  and  _315
REMARK  124  A    between atoms: _315  and  _316
REMARK  125  A    between atoms: _315  and  _318
REMARK  126  A    between atoms: _318  and  _319
REMARK  127  A    between atoms: _319  and  _320
REMARK  128  A    between atoms: _323  and  _325
REMARK  129  A    between atoms: _325  and  _326
REMARK  130  A    between atoms: _325  and  _328
REMARK  131  A    between atoms: _328  and  _329
REMARK  132  A    between atoms: _329  and  _330
REMARK  133  A    between atoms: _330  and  _331
REMARK  134  A    between atoms: _331  and  _332
REMARK  135  A    between atoms: _336  and  _338
REMARK  136  A    between atoms: _338  and  _339
REMARK  137  A    between atoms: _338  and  _341
REMARK  138  A    between atoms: _341  and  _342
REMARK  139  A    between atoms: _347  and  _348
REMARK  140  A    between atoms: _350  and  _352
REMARK  141  A    between atoms: _352  and  _353
REMARK  142  A    between atoms: _352  and  _355
REMARK  143  A    between atoms: _355  and  _356
REMARK  144  A    between atoms: _361  and  _363
REMARK  145  A    between atoms: _363  and  _364
REMARK  146  A    between atoms: _363  and  _366
REMARK  147  A    between atoms: _366  and  _367
REMARK  148  A    between atoms: _370  and  _372
REMARK  149  A    between atoms: _372  and  _373
REMARK  150  A    between atoms: _372  and  _375
REMARK  151  A    between atoms: _375  and  _376
REMARK  152  A    between atoms: _381  and  _383
REMARK  153  A    between atoms: _383  and  _384
REMARK  154  A    between atoms: _383  and  _386
REMARK  155  A    between atoms: _386  and  _387
REMARK  156  A    between atoms: _397  and  _399
REMARK  157  A    between atoms: _399  and  _400
REMARK  158  A    between atoms: _399  and  _402
REMARK  159  A    between atoms: _402  and  _403
REMARK  160  A    between atoms: _409  and  _411
REMARK  161  A    between atoms: _411  and  _412
REMARK  162  A    between atoms: _411  and  _414
REMARK  163  A    between atoms: _414  and  _415
REMARK  164  A    between atoms: _418  and  _420
REMARK  165  A    between atoms: _420  and  _421
REMARK  166  A    between atoms: _420  and  _423
REMARK  167  A    between atoms: _423  and  _424
REMARK  168  A    between atoms: _424  and  _425
REMARK  169  A    between atoms: _425  and  _426
REMARK  170  A    between atoms: _435  and  _437
REMARK  171  A    between atoms: _437  and  _438
REMARK  172  A    between atoms: _437  and  _440
REMARK  173  A    between atoms: _440  and  _441
REMARK  174  A    between atoms: _446  and  _448
REMARK  175  A    between atoms: _448  and  _449
REMARK  176  A    between atoms: _448  and  _451
REMARK  177  A    between atoms: _451  and  _452
REMARK  178  A    between atoms: _452  and  _453
REMARK  179  A    between atoms: _453  and  _454
REMARK  180  A    between atoms: _463  and  _465
REMARK  181  A    between atoms: _465  and  _466
REMARK  182  A    between atoms: _469  and  _471
REMARK  183  A    between atoms: _471  and  _472
REMARK  184  A    between atoms: _474  and  _476
REMARK  185  A    between atoms: _476  and  _477
REMARK  186  A    between atoms: _476  and  _479
REMARK  187  A    between atoms: _479  and  _480
REMARK  188  A    between atoms: _490  and  _492
REMARK  189  A    between atoms: _492  and  _493
REMARK  190  A    between atoms: _492  and  _495
REMARK  191  A    between atoms: _495  and  _496
REMARK  192  A    between atoms: _497  and  _499
REMARK  193  A    between atoms: _499  and  _500
REMARK  194  A    between atoms: _503  and  _505
REMARK  195  A    between atoms: _505  and  _506
REMARK  196  A    between atoms: _505  and  _508
REMARK  197  A    between atoms: _508  and  _509
REMARK  198  A    between atoms: _512  and  _514
REMARK  199  A    between atoms: _514  and  _515
REMARK  200  A    between atoms: _514  and  _517
REMARK  201  A    between atoms: _517  and  _518
REMARK  202  A    between atoms: _523  and  _524
REMARK  203  A    between atoms: _526  and  _528
REMARK  204  A    between atoms: _528  and  _529
REMARK  205  A    between atoms: _528  and  _531
REMARK  206  A    between atoms: _531  and  _532
REMARK  207  A    between atoms: _534  and  _536
REMARK  208  A    between atoms: _536  and  _537
REMARK  209  A    between atoms: _536  and  _539
REMARK  210  A    between atoms: _539  and  _540
REMARK  211  A    between atoms: _546  and  _548
REMARK  212  A    between atoms: _548  and  _549
REMARK  213  A    between atoms: _548  and  _551
REMARK  214  A    between atoms: _551  and  _552
REMARK  215  A    between atoms: _555  and  _557
REMARK  216  A    between atoms: _557  and  _558
REMARK  217  A    between atoms: _557  and  _560
REMARK  218  A    between atoms: _560  and  _561
REMARK  219  A    between atoms: _563  and  _565
REMARK  220  A    between atoms: _565  and  _566
REMARK  221  A    between atoms: _565  and  _568
REMARK  222  A    between atoms: _568  and  _569
REMARK  223  A    between atoms: _574  and  _576
REMARK  224  A    between atoms: _576  and  _577
REMARK  225  A    between atoms: _576  and  _579
REMARK  226  A    between atoms: _579  and  _580
REMARK  227  A    between atoms: _585  and  _587
REMARK  228  A    between atoms: _587  and  _588
REMARK  229  A    between atoms: _587  and  _590
REMARK  230  A    between atoms: _590  and  _591
REMARK  231  A    between atoms: _594  and  _596
REMARK  232  A    between atoms: _596  and  _597
REMARK  233  A    between atoms: _600  and  _602
REMARK  234  A    between atoms: _602  and  _603
REMARK  235  A    between atoms: _602  and  _605
REMARK  236  A    between atoms: _605  and  _606
REMARK  237  A    between atoms: _611  and  _612
REMARK  238  A    between atoms: _614  and  _616
REMARK  239  A    between atoms: _616  and  _617
REMARK  240  A    between atoms: _616  and  _619
REMARK  241  A    between atoms: _619  and  _620
REMARK  242  A    between atoms: _625  and  _626
REMARK  243  A    between atoms: _628  and  _630
REMARK  244  A    between atoms: _630  and  _631
REMARK  245  A    between atoms: _630  and  _633
REMARK  246  A    between atoms: _636  and  _638
REMARK  247  A    between atoms: _638  and  _639
REMARK  248  A    between atoms: _638  and  _641
REMARK  249  A    between atoms: _641  and  _642
REMARK  250  A    between atoms: _647  and  _649
REMARK  251  A    between atoms: _649  and  _650
REMARK  252  A    between atoms: _653  and  _655
REMARK  253  A    between atoms: _655  and  _656
REMARK  254  A    between atoms: _655  and  _658
REMARK  255  A    between atoms: _658  and  _659
REMARK  256  A    between atoms: _659  and  _660
REMARK  257  A    between atoms: _660  and  _661
REMARK  258  A    between atoms: _670  and  _672
REMARK  259  A    between atoms: _672  and  _673
REMARK  260  A    between atoms: _672  and  _675
REMARK  261  A    between atoms: _675  and  _676
REMARK  262  A    between atoms: _679  and  _681
REMARK  263  A    between atoms: _681  and  _682
REMARK  264  A    between atoms: _681  and  _684
REMARK  265  A    between atoms: _684  and  _685
REMARK  266  A    between atoms: _688  and  _690
REMARK  267  A    between atoms: _690  and  _691
REMARK  268  A    between atoms: _690  and  _693
REMARK  269  A    between atoms: _693  and  _694
REMARK                            x       y       z     vdW  Elec       q    Type
REMARK                         _______ _______ _______ _____ _____    ______ ____
ROOT
ATOM      1  O   HOH     1      10.275  15.864   4.864  0.00  0.00    +0.000 OA
ENDROOT
TORSDOF 0
REMARK  Name = ../refined-set-2016/1b3f/1b3f_pocket.pdb
REMARK  269 active torsions:
REMARK  status: ('A' for Active; 'I' for Inactive)
REMARK    1  A    between atoms: _1  and  _3
REMARK    2  A    between atoms: _3  and  _4
REMARK    3  A    between atoms: _3  and  _6
REMARK    4  A    between atoms: _6  and  _7
REMARK    5  A    between atoms: _12  and  _14
REMARK    6  A    between atoms: _14  and  _15
REMARK    7  A    between atoms: _17  and  _19
REMARK    8  A    between atoms: _19  and  _20
REMARK    9  A    between atoms: _19  and  _22
REMARK   10  A    between atoms: _22  and  _23
REMARK   11  A    between atoms: _25  and  _27
REMARK   12  A    between atoms: _27  and  _28
REMARK   13  A    between atoms: _27  and  _30
REMARK   14  A    between atoms: _30  and  _31
REMARK   15  A    between atoms: _31  and  _32
REMARK   16  A    between atoms: _37  and  _39
REMARK   17  A    between atoms: _39  and  _40
REMARK   18  A    between atoms: _39  and  _42
REMARK   19  A    between atoms: _42  and  _43
REMARK   20  A    between atoms: _46  and  _48
REMARK   21  A    between atoms: _48  and  _49
REMARK   22  A    between atoms: _48  and  _51
REMARK   23  A    between atoms: _52  and  _53
REMARK   24  A    between atoms: _56  and  _58
REMARK   25  A    between atoms: _58  and  _59
REMARK   26  A    between atoms: _61  and  _63
REMARK   27  A    between atoms: _63  and  _64
REMARK   28  A    between atoms: _63  and  _66
REMARK   29  A    between atoms: _70  and  _71
REMARK   30  A    between atoms: _76  and  _78
REMARK   31  A    between atoms: _78  and  _79
REMARK   32  A    between atoms: _78  and  _81
REMARK   33  A    between atoms: _81  and  _82
REMARK   34  A    between atoms: _82  and  _83
REMARK   35  A    between atoms: _86  and  _88
REMARK   36  A    between atoms: _88  and  _89
REMARK   37  A    between atoms: _88  and  _91
REMARK   38  A    between atoms: _91  and  _92
REMARK   39  A    between atoms: _94  and  _96
REMARK   40  A    between atoms: _96  and  _97
REMARK   41  A    between atoms: _96  and  _99
REMARK   42  A    between atoms: _99  and  _100
REMARK   43  A    between atoms: _105  and  _107
REMARK   44  A    between atoms: _107  and  _108
REMARK   45  A    between atoms: _107  and  _110
REMARK   46  A    between atoms: _110  and  _111
REMARK   47  A    between atoms: _111  and  _112
REMARK   48  A    between atoms: _112  and  _113
REMARK   49  A    between atoms: _123  and  _124
REMARK   50  A    between atoms: _129  and  _131
REMARK   51  A    between atoms: _131  and  _132
REMARK   52  A    between atoms: _131  and  _134
REMARK   53  A    between atoms: _134  and  _135
REMARK   54  A    between atoms: _140  and  _141
REMARK   55  A    between atoms: _143  and  _145
REMARK   56  A    between atoms: _145  and  _146
REMARK   57  A    between atoms: _145  and  _148
REMARK   58  A    between atoms: _148  and  _149
REMARK   59  A    between atoms: _154  and  _155
REMARK   60  A    between atoms: _157  and  _159
REMARK   61  A    between atoms: _159  and  _160
REMARK   62  A    between atoms: _159  and  _162
REMARK   63  A    between atoms: _165  and  _167
REMARK   64  A    between atoms: _167  and  _168
REMARK   65  A    between atoms: _167  and  _170
REMARK   66  A    between atoms: _170  and  _171
REMARK   67  A    between atoms: _177  and  _178
REMARK   68  A    between atoms: _183  and  _185
REMARK   69  A    between atoms: _185  and  _186
REMARK   70  A    between atoms: _185  and  _188
REMARK   71  A    between atoms: _188  and  _189
REMARK   72  A    between atoms: _191  and  _193
REMARK   73  A    between atoms: _193  and  _194
REMARK   74  A    between atoms: _193  and  _196
REMARK   75  A    between atoms: _196  and  _197
REMARK   76  A    between atoms: _197  and  _198
REMARK   77  A    between atoms: _201  and  _203
REMARK   78  A    between atoms: _203  and  _204
REMARK   79  A    between atoms: _203  and  _206
REMARK   80  A    between atoms: _206  and  _207
REMARK   81  A    between atoms: _212  and  _213
REMARK   82  A    between atoms: _215  and  _217
REMARK   83  A    between atoms: _217  and  _218
REMARK   84  A    between atoms: _217  and  _220
REMARK   85  A    between atoms: _220  and  _221
REMARK   86  A    between atoms: _226  and  _228
REMARK   87  A    between atoms: _228  and  _229
REMARK   88  A    between atoms: _228  and  _231
REMARK   89  A    between atoms: _231  and  _232
REMARK   90  A    between atoms: _237  and  _239
REMARK   91  A    between atoms: _239  and  _240
REMARK   92  A    between atoms: _239  and  _242
REMARK   93  A    between atoms: _242  and  _243
REMARK   94  A    between atoms: _243  and  _244
REMARK   95  A    between atoms: _246  and  _248
REMARK   96  A    between atoms: _248  and  _249
REMARK   97  A    between atoms: _248  and  _251
REMARK   98  A    between atoms: _251  and  _252
REMARK   99  A    between atoms: _257  and  _258
REMARK  100  A    between atoms: _260  and  _262
REMARK  101  A    between atoms: _262  and  _263
REMARK  102  A    between atoms: _262  and  _265
REMARK  103  A    between atoms: _265  and  _266
REMARK  104  A    between atoms: _269  and  _271
REMARK  105  A    between atoms: _271  and  _272
REMARK  106  A    between atoms: _271  and  _274
REMARK  107  A    between atoms: _274  and  _275
REMARK  108  A    between atoms: _275  and  _496
REMARK  109  A    between atoms: _276  and  _278
REMARK  110  A    between atoms: _278  and  _279
REMARK  111  A    between atoms: _278  and  _281
REMARK  112  A    between atoms: _281  and  _282
REMARK  113  A    between atoms: _285  and  _287
REMARK  114  A    between atoms: _287  and  _288
REMARK  115  A    between atoms: _287  and  _290
REMARK  116  A    between atoms: _290  and  _291
REMARK  117  A    between atoms: _296  and  _297
REMARK  118  A    between atoms: _299  and  _301
REMARK  119  A    between atoms: _301  and  _302
REMARK  120  A    between atoms: _301  and  _304
REMARK  121  A    between atoms: _304  and  _305
REMARK  122  A    between atoms: _310  and  _311
REMARK  123  A    between atoms: _313  and  _315
REMARK  124  A    between atoms: _315  and  _316
REMARK  125  A    between atoms: _315  and  _318
REMARK  126  A    between atoms: _318  and  _319
REMARK  127  A    between atoms: _319  and  _320
REMARK  128  A    between atoms: _323  and  _325
REMARK  129  A    between atoms: _325  and  _326
REMARK  130  A    between atoms: _325  and  _328
REMARK  131  A    between atoms: _328  and  _329
REMARK  132  A    between atoms: _329  and  _330
REMARK  133  A    between atoms: _330  and  _331
REMARK  134  A    between atoms: _331  and  _332
REMARK  135  A    between atoms: _336  and  _338
REMARK  136  A    between atoms: _338  and  _339
REMARK  137  A    between atoms: _338  and  _341
REMARK  138  A    between atoms: _341  and  _342
REMARK  139  A    between atoms: _347  and  _348
REMARK  140  A    between atoms: _350  and  _352
REMARK  141  A    between atoms: _352  and  _353
REMARK  142  A    between atoms: _352  and  _355
REMARK  143  A    between atoms: _355  and  _356
REMARK  144  A    between atoms: _361  and  _363
REMARK  145  A    between atoms: _363  and  _364
REMARK  146  A    between atoms: _363  and  _366
REMARK  147  A    between atoms: _366  and  _367
REMARK  148  A    between atoms: _370  and  _372
REMARK  149  A    between atoms: _372  and  _373
REMARK  150  A    between atoms: _372  and  _375
REMARK  151  A    between atoms: _375  and  _376
REMARK  152  A    between atoms: _381  and  _383
REMARK  153  A    between atoms: _383  and  _384
REMARK  154  A    between atoms: _383  and  _386
REMARK  155  A    between atoms: _386  and  _387
REMARK  156  A    between atoms: _397  and  _399
REMARK  157  A    between atoms: _399  and  _400
REMARK  158  A    between atoms: _399  and  _402
REMARK  159  A    between atoms: _402  and  _403
REMARK  160  A    between atoms: _409  and  _411
REMARK  161  A    between atoms: _411  and  _412
REMARK  162  A    between atoms: _411  and  _414
REMARK  163  A    between atoms: _414  and  _415
REMARK  164  A    between atoms: _418  and  _420
REMARK  165  A    between atoms: _420  and  _421
REMARK  166  A    between atoms: _420  and  _423
REMARK  167  A    between atoms: _423  and  _424
REMARK  168  A    between atoms: _424  and  _425
REMARK  169  A    between atoms: _425  and  _426
REMARK  170  A    between atoms: _435  and  _437
REMARK  171  A    between atoms: _437  and  _438
REMARK  172  A    between atoms: _437  and  _440
REMARK  173  A    between atoms: _440  and  _441
REMARK  174  A    between atoms: _446  and  _448
REMARK  175  A    between atoms: _448  and  _449
REMARK  176  A    between atoms: _448  and  _451
REMARK  177  A    between atoms: _451  and  _452
REMARK  178  A    between atoms: _452  and  _453
REMARK  179  A    between atoms: _453  and  _454
REMARK  180  A    between atoms: _463  and  _465
REMARK  181  A    between atoms: _465  and  _466
REMARK  182  A    between atoms: _469  and  _471
REMARK  183  A    between atoms: _471  and  _472
REMARK  184  A    between atoms: _474  and  _476
REMARK  185  A    between atoms: _476  and  _477
REMARK  186  A    between atoms: _476  and  _479
REMARK  187  A    between atoms: _479  and  _480
REMARK  188  A    between atoms: _490  and  _492
REMARK  189  A    between atoms: _492  and  _493
REMARK  190  A    between atoms: _492  and  _495
REMARK  191  A    between atoms: _495  and  _496
REMARK  192  A    between atoms: _497  and  _499
REMARK  193  A    between atoms: _499  and  _500
REMARK  194  A    between atoms: _503  and  _505
REMARK  195  A    between atoms: _505  and  _506
REMARK  196  A    between atoms: _505  and  _508
REMARK  197  A    between atoms: _508  and  _509
REMARK  198  A    between atoms: _512  and  _514
REMARK  199  A    between atoms: _514  and  _515
REMARK  200  A    between atoms: _514  and  _517
REMARK  201  A    between atoms: _517  and  _518
REMARK  202  A    between atoms: _523  and  _524
REMARK  203  A    between atoms: _526  and  _528
REMARK  204  A    between atoms: _528  and  _529
REMARK  205  A    between atoms: _528  and  _531
REMARK  206  A    between atoms: _531  and  _532
REMARK  207  A    between atoms: _534  and  _536
REMARK  208  A    between atoms: _536  and  _537
REMARK  209  A    between atoms: _536  and  _539
REMARK  210  A    between atoms: _539  and  _540
REMARK  211  A    between atoms: _546  and  _548
REMARK  212  A    between atoms: _548  and  _549
REMARK  213  A    between atoms: _548  and  _551
REMARK  214  A    between atoms: _551  and  _552
REMARK  215  A    between atoms: _555  and  _557
REMARK  216  A    between atoms: _557  and  _558
REMARK  217  A    between atoms: _557  and  _560
REMARK  218  A    between atoms: _560  and  _561
REMARK  219  A    between atoms: _563  and  _565
REMARK  220  A    between atoms: _565  and  _566
REMARK  221  A    between atoms: _565  and  _568
REMARK  222  A    between atoms: _568  and  _569
REMARK  223  A    between atoms: _574  and  _576
REMARK  224  A    between atoms: _576  and  _577
REMARK  225  A    between atoms: _576  and  _579
REMARK  226  A    between atoms: _579  and  _580
REMARK  227  A    between atoms: _585  and  _587
REMARK  228  A    between atoms: _587  and  _588
REMARK  229  A    between atoms: _587  and  _590
REMARK  230  A    between atoms: _590  and  _591
REMARK  231  A    between atoms: _594  and  _596
REMARK  232  A    between atoms: _596  and  _597
REMARK  233  A    between atoms: _600  and  _602
REMARK  234  A    between atoms: _602  and  _603
REMARK  235  A    between atoms: _602  and  _605
REMARK  236  A    between atoms: _605  and  _606
REMARK  237  A    between atoms: _611  and  _612
REMARK  238  A    between atoms: _614  and  _616
REMARK  239  A    between atoms: _616  and  _617
REMARK  240  A    between atoms: _616  and  _619
REMARK  241  A    between atoms: _619  and  _620
REMARK  242  A    between atoms: _625  and  _626
REMARK  243  A    between atoms: _628  and  _630
REMARK  244  A    between atoms: _630  and  _631
REMARK  245  A    between atoms: _630  and  _633
REMARK  246  A    between atoms: _636  and  _638
REMARK  247  A    between atoms: _638  and  _639
REMARK  248  A    between atoms: _638  and  _641
REMARK  249  A    between atoms: _641  and  _642
REMARK  250  A    between atoms: _647  and  _649
REMARK  251  A    between atoms: _649  and  _650
REMARK  252  A    between atoms: _653  and  _655
REMARK  253  A    between atoms: _655  and  _656
REMARK  254  A    between atoms: _655  and  _658
REMARK  255  A    between atoms: _658  and  _659
REMARK  256  A    between atoms: _659  and  _660
REMARK  257  A    between atoms: _660  and  _661
REMARK  258  A    between atoms: _670  and  _672
REMARK  259  A    between atoms: _672  and  _673
REMARK  260  A    between atoms: _672  and  _675
REMARK  261  A    between atoms: _675  and  _676
REMARK  262  A    between atoms: _679  and  _681
REMARK  263  A    between atoms: _681  and  _682
REMARK  264  A    between atoms: _681  and  _684
REMARK  265  A    between atoms: _684  and  _685
REMARK  266  A    between atoms: _688  and  _690
REMARK  267  A    between atoms: _690  and  _691
REMARK  268  A    between atoms: _690  and  _693
REMARK  269  A    between atoms: _693  and  _694
REMARK                            x       y       z     vdW  Elec       q    Type
REMARK                         _______ _______ _______ _____ _____    ______ ____
ROOT
ATOM      1  O   HOH     1      -1.566  21.727  12.616  0.00  0.00    +0.000 OA
ENDROOT
TORSDOF 0
REMARK  Name = ../refined-set-2016/1b3f/1b3f_pocket.pdb
REMARK  269 active torsions:
REMARK  status: ('A' for Active; 'I' for Inactive)
REMARK    1  A    between atoms: _1  and  _3
REMARK    2  A    between atoms: _3  and  _4
REMARK    3  A    between atoms: _3  and  _6
REMARK    4  A    between atoms: _6  and  _7
REMARK    5  A    between atoms: _12  and  _14
REMARK    6  A    between atoms: _14  and  _15
REMARK    7  A    between atoms: _17  and  _19
REMARK    8  A    between atoms: _19  and  _20
REMARK    9  A    between atoms: _19  and  _22
REMARK   10  A    between atoms: _22  and  _23
REMARK   11  A    between atoms: _25  and  _27
REMARK   12  A    between atoms: _27  and  _28
REMARK   13  A    between atoms: _27  and  _30
REMARK   14  A    between atoms: _30  and  _31
REMARK   15  A    between atoms: _31  and  _32
REMARK   16  A    between atoms: _37  and  _39
REMARK   17  A    between atoms: _39  and  _40
REMARK   18  A    between atoms: _39  and  _42
REMARK   19  A    between atoms: _42  and  _43
REMARK   20  A    between atoms: _46  and  _48
REMARK   21  A    between atoms: _48  and  _49
REMARK   22  A    between atoms: _48  and  _51
REMARK   23  A    between atoms: _52  and  _53
REMARK   24  A    between atoms: _56  and  _58
REMARK   25  A    between atoms: _58  and  _59
REMARK   26  A    between atoms: _61  and  _63
REMARK   27  A    between atoms: _63  and  _64
REMARK   28  A    between atoms: _63  and  _66
REMARK   29  A    between atoms: _70  and  _71
REMARK   30  A    between atoms: _76  and  _78
REMARK   31  A    between atoms: _78  and  _79
REMARK   32  A    between atoms: _78  and  _81
REMARK   33  A    between atoms: _81  and  _82
REMARK   34  A    between atoms: _82  and  _83
REMARK   35  A    between atoms: _86  and  _88
REMARK   36  A    between atoms: _88  and  _89
REMARK   37  A    between atoms: _88  and  _91
REMARK   38  A    between atoms: _91  and  _92
REMARK   39  A    between atoms: _94  and  _96
REMARK   40  A    between atoms: _96  and  _97
REMARK   41  A    between atoms: _96  and  _99
REMARK   42  A    between atoms: _99  and  _100
REMARK   43  A    between atoms: _105  and  _107
REMARK   44  A    between atoms: _107  and  _108
REMARK   45  A    between atoms: _107  and  _110
REMARK   46  A    between atoms: _110  and  _111
REMARK   47  A    between atoms: _111  and  _112
REMARK   48  A    between atoms: _112  and  _113
REMARK   49  A    between atoms: _123  and  _124
REMARK   50  A    between atoms: _129  and  _131
REMARK   51  A    between atoms: _131  and  _132
REMARK   52  A    between atoms: _131  and  _134
REMARK   53  A    between atoms: _134  and  _135
REMARK   54  A    between atoms: _140  and  _141
REMARK   55  A    between atoms: _143  and  _145
REMARK   56  A    between atoms: _145  and  _146
REMARK   57  A    between atoms: _145  and  _148
REMARK   58  A    between atoms: _148  and  _149
REMARK   59  A    between atoms: _154  and  _155
REMARK   60  A    between atoms: _157  and  _159
REMARK   61  A    between atoms: _159  and  _160
REMARK   62  A    between atoms: _159  and  _162
REMARK   63  A    between atoms: _165  and  _167
REMARK   64  A    between atoms: _167  and  _168
REMARK   65  A    between atoms: _167  and  _170
REMARK   66  A    between atoms: _170  and  _171
REMARK   67  A    between atoms: _177  and  _178
REMARK   68  A    between atoms: _183  and  _185
REMARK   69  A    between atoms: _185  and  _186
REMARK   70  A    between atoms: _185  and  _188
REMARK   71  A    between atoms: _188  and  _189
REMARK   72  A    between atoms: _191  and  _193
REMARK   73  A    between atoms: _193  and  _194
REMARK   74  A    between atoms: _193  and  _196
REMARK   75  A    between atoms: _196  and  _197
REMARK   76  A    between atoms: _197  and  _198
REMARK   77  A    between atoms: _201  and  _203
REMARK   78  A    between atoms: _203  and  _204
REMARK   79  A    between atoms: _203  and  _206
REMARK   80  A    between atoms: _206  and  _207
REMARK   81  A    between atoms: _212  and  _213
REMARK   82  A    between atoms: _215  and  _217
REMARK   83  A    between atoms: _217  and  _218
REMARK   84  A    between atoms: _217  and  _220
REMARK   85  A    between atoms: _220  and  _221
REMARK   86  A    between atoms: _226  and  _228
REMARK   87  A    between atoms: _228  and  _229
REMARK   88  A    between atoms: _228  and  _231
REMARK   89  A    between atoms: _231  and  _232
REMARK   90  A    between atoms: _237  and  _239
REMARK   91  A    between atoms: _239  and  _240
REMARK   92  A    between atoms: _239  and  _242
REMARK   93  A    between atoms: _242  and  _243
REMARK   94  A    between atoms: _243  and  _244
REMARK   95  A    between atoms: _246  and  _248
REMARK   96  A    between atoms: _248  and  _249
REMARK   97  A    between atoms: _248  and  _251
REMARK   98  A    between atoms: _251  and  _252
REMARK   99  A    between atoms: _257  and  _258
REMARK  100  A    between atoms: _260  and  _262
REMARK  101  A    between atoms: _262  and  _263
REMARK  102  A    between atoms: _262  and  _265
REMARK  103  A    between atoms: _265  and  _266
REMARK  104  A    between atoms: _269  and  _271
REMARK  105  A    between atoms: _271  and  _272
REMARK  106  A    between atoms: _271  and  _274
REMARK  107  A    between atoms: _274  and  _275
REMARK  108  A    between atoms: _275  and  _496
REMARK  109  A    between atoms: _276  and  _278
REMARK  110  A    between atoms: _278  and  _279
REMARK  111  A    between atoms: _278  and  _281
REMARK  112  A    between atoms: _281  and  _282
REMARK  113  A    between atoms: _285  and  _287
REMARK  114  A    between atoms: _287  and  _288
REMARK  115  A    between atoms: _287  and  _290
REMARK  116  A    between atoms: _290  and  _291
REMARK  117  A    between atoms: _296  and  _297
REMARK  118  A    between atoms: _299  and  _301
REMARK  119  A    between atoms: _301  and  _302
REMARK  120  A    between atoms: _301  and  _304
REMARK  121  A    between atoms: _304  and  _305
REMARK  122  A    between atoms: _310  and  _311
REMARK  123  A    between atoms: _313  and  _315
REMARK  124  A    between atoms: _315  and  _316
REMARK  125  A    between atoms: _315  and  _318
REMARK  126  A    between atoms: _318  and  _319
REMARK  127  A    between atoms: _319  and  _320
REMARK  128  A    between atoms: _323  and  _325
REMARK  129  A    between atoms: _325  and  _326
REMARK  130  A    between atoms: _325  and  _328
REMARK  131  A    between atoms: _328  and  _329
REMARK  132  A    between atoms: _329  and  _330
REMARK  133  A    between atoms: _330  and  _331
REMARK  134  A    between atoms: _331  and  _332
REMARK  135  A    between atoms: _336  and  _338
REMARK  136  A    between atoms: _338  and  _339
REMARK  137  A    between atoms: _338  and  _341
REMARK  138  A    between atoms: _341  and  _342
REMARK  139  A    between atoms: _347  and  _348
REMARK  140  A    between atoms: _350  and  _352
REMARK  141  A    between atoms: _352  and  _353
REMARK  142  A    between atoms: _352  and  _355
REMARK  143  A    between atoms: _355  and  _356
REMARK  144  A    between atoms: _361  and  _363
REMARK  145  A    between atoms: _363  and  _364
REMARK  146  A    between atoms: _363  and  _366
REMARK  147  A    between atoms: _366  and  _367
REMARK  148  A    between atoms: _370  and  _372
REMARK  149  A    between atoms: _372  and  _373
REMARK  150  A    between atoms: _372  and  _375
REMARK  151  A    between atoms: _375  and  _376
REMARK  152  A    between atoms: _381  and  _383
REMARK  153  A    between atoms: _383  and  _384
REMARK  154  A    between atoms: _383  and  _386
REMARK  155  A    between atoms: _386  and  _387
REMARK  156  A    between atoms: _397  and  _399
REMARK  157  A    between atoms: _399  and  _400
REMARK  158  A    between atoms: _399  and  _402
REMARK  159  A    between atoms: _402  and  _403
REMARK  160  A    between atoms: _409  and  _411
REMARK  161  A    between atoms: _411  and  _412
REMARK  162  A    between atoms: _411  and  _414
REMARK  163  A    between atoms: _414  and  _415
REMARK  164  A    between atoms: _418  and  _420
REMARK  165  A    between atoms: _420  and  _421
REMARK  166  A    between atoms: _420  and  _423
REMARK  167  A    between atoms: _423  and  _424
REMARK  168  A    between atoms: _424  and  _425
REMARK  169  A    between atoms: _425  and  _426
REMARK  170  A    between atoms: _435  and  _437
REMARK  171  A    between atoms: _437  and  _438
REMARK  172  A    between atoms: _437  and  _440
REMARK  173  A    between atoms: _440  and  _441
REMARK  174  A    between atoms: _446  and  _448
REMARK  175  A    between atoms: _448  and  _449
REMARK  176  A    between atoms: _448  and  _451
REMARK  177  A    between atoms: _451  and  _452
REMARK  178  A    between atoms: _452  and  _453
REMARK  179  A    between atoms: _453  and  _454
REMARK  180  A    between atoms: _463  and  _465
REMARK  181  A    between atoms: _465  and  _466
REMARK  182  A    between atoms: _469  and  _471
REMARK  183  A    between atoms: _471  and  _472
REMARK  184  A    between atoms: _474  and  _476
REMARK  185  A    between atoms: _476  and  _477
REMARK  186  A    between atoms: _476  and  _479
REMARK  187  A    between atoms: _479  and  _480
REMARK  188  A    between atoms: _490  and  _492
REMARK  189  A    between atoms: _492  and  _493
REMARK  190  A    between atoms: _492  and  _495
REMARK  191  A    between atoms: _495  and  _496
REMARK  192  A    between atoms: _497  and  _499
REMARK  193  A    between atoms: _499  and  _500
REMARK  194  A    between atoms: _503  and  _505
REMARK  195  A    between atoms: _505  and  _506
REMARK  196  A    between atoms: _505  and  _508
REMARK  197  A    between atoms: _508  and  _509
REMARK  198  A    between atoms: _512  and  _514
REMARK  199  A    between atoms: _514  and  _515
REMARK  200  A    between atoms: _514  and  _517
REMARK  201  A    between atoms: _517  and  _518
REMARK  202  A    between atoms: _523  and  _524
REMARK  203  A    between atoms: _526  and  _528
REMARK  204  A    between atoms: _528  and  _529
REMARK  205  A    between atoms: _528  and  _531
REMARK  206  A    between atoms: _531  and  _532
REMARK  207  A    between atoms: _534  and  _536
REMARK  208  A    between atoms: _536  and  _537
REMARK  209  A    between atoms: _536  and  _539
REMARK  210  A    between atoms: _539  and  _540
REMARK  211  A    between atoms: _546  and  _548
REMARK  212  A    between atoms: _548  and  _549
REMARK  213  A    between atoms: _548  and  _551
REMARK  214  A    between atoms: _551  and  _552
REMARK  215  A    between atoms: _555  and  _557
REMARK  216  A    between atoms: _557  and  _558
REMARK  217  A    between atoms: _557  and  _560
REMARK  218  A    between atoms: _560  and  _561
REMARK  219  A    between atoms: _563  and  _565
REMARK  220  A    between atoms: _565  and  _566
REMARK  221  A    between atoms: _565  and  _568
REMARK  222  A    between atoms: _568  and  _569
REMARK  223  A    between atoms: _574  and  _576
REMARK  224  A    between atoms: _576  and  _577
REMARK  225  A    between atoms: _576  and  _579
REMARK  226  A    between atoms: _579  and  _580
REMARK  227  A    between atoms: _585  and  _587
REMARK  228  A    between atoms: _587  and  _588
REMARK  229  A    between atoms: _587  and  _590
REMARK  230  A    between atoms: _590  and  _591
REMARK  231  A    between atoms: _594  and  _596
REMARK  232  A    between atoms: _596  and  _597
REMARK  233  A    between atoms: _600  and  _602
REMARK  234  A    between atoms: _602  and  _603
REMARK  235  A    between atoms: _602  and  _605
REMARK  236  A    between atoms: _605  and  _606
REMARK  237  A    between atoms: _611  and  _612
REMARK  238  A    between atoms: _614  and  _616
REMARK  239  A    between atoms: _616  and  _617
REMARK  240  A    between atoms: _616  and  _619
REMARK  241  A    between atoms: _619  and  _620
REMARK  242  A    between atoms: _625  and  _626
REMARK  243  A    between atoms: _628  and  _630
REMARK  244  A    between atoms: _630  and  _631
REMARK  245  A    between atoms: _630  and  _633
REMARK  246  A    between atoms: _636  and  _638
REMARK  247  A    between atoms: _638  and  _639
REMARK  248  A    between atoms: _638  and  _641
REMARK  249  A    between atoms: _641  and  _642
REMARK  250  A    between atoms: _647  and  _649
REMARK  251  A    between atoms: _649  and  _650
REMARK  252  A    between atoms: _653  and  _655
REMARK  253  A    between atoms: _655  and  _656
REMARK  254  A    between atoms: _655  and  _658
REMARK  255  A    between atoms: _658  and  _659
REMARK  256  A    between atoms: _659  and  _660
REMARK  257  A    between atoms: _660  and  _661
REMARK  258  A    between atoms: _670  and  _672
REMARK  259  A    between atoms: _672  and  _673
REMARK  260  A    between atoms: _672  and  _675
REMARK  261  A    between atoms: _675  and  _676
REMARK  262  A    between atoms: _679  and  _681
REMARK  263  A    between atoms: _681  and  _682
REMARK  264  A    between atoms: _681  and  _684
REMARK  265  A    between atoms: _684  and  _685
REMARK  266  A    between atoms: _688  and  _690
REMARK  267  A    between atoms: _690  and  _691
REMARK  268  A    between atoms: _690  and  _693
REMARK  269  A    between atoms: _693  and  _694
REMARK                            x       y       z     vdW  Elec       q    Type
REMARK                         _______ _______ _______ _____ _____    ______ ____
ROOT
ATOM      1  O   HOH     1       7.879  15.578   6.696  0.00  0.00    +0.000 OA
ENDROOT
TORSDOF 0
REMARK  Name = ../refined-set-2016/1b3f/1b3f_pocket.pdb
REMARK  269 active torsions:
REMARK  status: ('A' for Active; 'I' for Inactive)
REMARK    1  A    between atoms: _1  and  _3
REMARK    2  A    between atoms: _3  and  _4
REMARK    3  A    between atoms: _3  and  _6
REMARK    4  A    between atoms: _6  and  _7
REMARK    5  A    between atoms: _12  and  _14
REMARK    6  A    between atoms: _14  and  _15
REMARK    7  A    between atoms: _17  and  _19
REMARK    8  A    between atoms: _19  and  _20
REMARK    9  A    between atoms: _19  and  _22
REMARK   10  A    between atoms: _22  and  _23
REMARK   11  A    between atoms: _25  and  _27
REMARK   12  A    between atoms: _27  and  _28
REMARK   13  A    between atoms: _27  and  _30
REMARK   14  A    between atoms: _30  and  _31
REMARK   15  A    between atoms: _31  and  _32
REMARK   16  A    between atoms: _37  and  _39
REMARK   17  A    between atoms: _39  and  _40
REMARK   18  A    between atoms: _39  and  _42
REMARK   19  A    between atoms: _42  and  _43
REMARK   20  A    between atoms: _46  and  _48
REMARK   21  A    between atoms: _48  and  _49
REMARK   22  A    between atoms: _48  and  _51
REMARK   23  A    between atoms: _52  and  _53
REMARK   24  A    between atoms: _56  and  _58
REMARK   25  A    between atoms: _58  and  _59
REMARK   26  A    between atoms: _61  and  _63
REMARK   27  A    between atoms: _63  and  _64
REMARK   28  A    between atoms: _63  and  _66
REMARK   29  A    between atoms: _70  and  _71
REMARK   30  A    between atoms: _76  and  _78
REMARK   31  A    between atoms: _78  and  _79
REMARK   32  A    between atoms: _78  and  _81
REMARK   33  A    between atoms: _81  and  _82
REMARK   34  A    between atoms: _82  and  _83
REMARK   35  A    between atoms: _86  and  _88
REMARK   36  A    between atoms: _88  and  _89
REMARK   37  A    between atoms: _88  and  _91
REMARK   38  A    between atoms: _91  and  _92
REMARK   39  A    between atoms: _94  and  _96
REMARK   40  A    between atoms: _96  and  _97
REMARK   41  A    between atoms: _96  and  _99
REMARK   42  A    between atoms: _99  and  _100
REMARK   43  A    between atoms: _105  and  _107
REMARK   44  A    between atoms: _107  and  _108
REMARK   45  A    between atoms: _107  and  _110
REMARK   46  A    between atoms: _110  and  _111
REMARK   47  A    between atoms: _111  and  _112
REMARK   48  A    between atoms: _112  and  _113
REMARK   49  A    between atoms: _123  and  _124
REMARK   50  A    between atoms: _129  and  _131
REMARK   51  A    between atoms: _131  and  _132
REMARK   52  A    between atoms: _131  and  _134
REMARK   53  A    between atoms: _134  and  _135
REMARK   54  A    between atoms: _140  and  _141
REMARK   55  A    between atoms: _143  and  _145
REMARK   56  A    between atoms: _145  and  _146
REMARK   57  A    between atoms: _145  and  _148
REMARK   58  A    between atoms: _148  and  _149
REMARK   59  A    between atoms: _154  and  _155
REMARK   60  A    between atoms: _157  and  _159
REMARK   61  A    between atoms: _159  and  _160
REMARK   62  A    between atoms: _159  and  _162
REMARK   63  A    between atoms: _165  and  _167
REMARK   64  A    between atoms: _167  and  _168
REMARK   65  A    between atoms: _167  and  _170
REMARK   66  A    between atoms: _170  and  _171
REMARK   67  A    between atoms: _177  and  _178
REMARK   68  A    between atoms: _183  and  _185
REMARK   69  A    between atoms: _185  and  _186
REMARK   70  A    between atoms: _185  and  _188
REMARK   71  A    between atoms: _188  and  _189
REMARK   72  A    between atoms: _191  and  _193
REMARK   73  A    between atoms: _193  and  _194
REMARK   74  A    between atoms: _193  and  _196
REMARK   75  A    between atoms: _196  and  _197
REMARK   76  A    between atoms: _197  and  _198
REMARK   77  A    between atoms: _201  and  _203
REMARK   78  A    between atoms: _203  and  _204
REMARK   79  A    between atoms: _203  and  _206
REMARK   80  A    between atoms: _206  and  _207
REMARK   81  A    between atoms: _212  and  _213
REMARK   82  A    between atoms: _215  and  _217
REMARK   83  A    between atoms: _217  and  _218
REMARK   84  A    between atoms: _217  and  _220
REMARK   85  A    between atoms: _220  and  _221
REMARK   86  A    between atoms: _226  and  _228
REMARK   87  A    between atoms: _228  and  _229
REMARK   88  A    between atoms: _228  and  _231
REMARK   89  A    between atoms: _231  and  _232
REMARK   90  A    between atoms: _237  and  _239
REMARK   91  A    between atoms: _239  and  _240
REMARK   92  A    between atoms: _239  and  _242
REMARK   93  A    between atoms: _242  and  _243
REMARK   94  A    between atoms: _243  and  _244
REMARK   95  A    between atoms: _246  and  _248
REMARK   96  A    between atoms: _248  and  _249
REMARK   97  A    between atoms: _248  and  _251
REMARK   98  A    between atoms: _251  and  _252
REMARK   99  A    between atoms: _257  and  _258
REMARK  100  A    between atoms: _260  and  _262
REMARK  101  A    between atoms: _262  and  _263
REMARK  102  A    between atoms: _262  and  _265
REMARK  103  A    between atoms: _265  and  _266
REMARK  104  A    between atoms: _269  and  _271
REMARK  105  A    between atoms: _271  and  _272
REMARK  106  A    between atoms: _271  and  _274
REMARK  107  A    between atoms: _274  and  _275
REMARK  108  A    between atoms: _275  and  _496
REMARK  109  A    between atoms: _276  and  _278
REMARK  110  A    between atoms: _278  and  _279
REMARK  111  A    between atoms: _278  and  _281
REMARK  112  A    between atoms: _281  and  _282
REMARK  113  A    between atoms: _285  and  _287
REMARK  114  A    between atoms: _287  and  _288
REMARK  115  A    between atoms: _287  and  _290
REMARK  116  A    between atoms: _290  and  _291
REMARK  117  A    between atoms: _296  and  _297
REMARK  118  A    between atoms: _299  and  _301
REMARK  119  A    between atoms: _301  and  _302
REMARK  120  A    between atoms: _301  and  _304
REMARK  121  A    between atoms: _304  and  _305
REMARK  122  A    between atoms: _310  and  _311
REMARK  123  A    between atoms: _313  and  _315
REMARK  124  A    between atoms: _315  and  _316
REMARK  125  A    between atoms: _315  and  _318
REMARK  126  A    between atoms: _318  and  _319
REMARK  127  A    between atoms: _319  and  _320
REMARK  128  A    between atoms: _323  and  _325
REMARK  129  A    between atoms: _325  and  _326
REMARK  130  A    between atoms: _325  and  _328
REMARK  131  A    between atoms: _328  and  _329
REMARK  132  A    between atoms: _329  and  _330
REMARK  133  A    between atoms: _330  and  _331
REMARK  134  A    between atoms: _331  and  _332
REMARK  135  A    between atoms: _336  and  _338
REMARK  136  A    between atoms: _338  and  _339
REMARK  137  A    between atoms: _338  and  _341
REMARK  138  A    between atoms: _341  and  _342
REMARK  139  A    between atoms: _347  and  _348
REMARK  140  A    between atoms: _350  and  _352
REMARK  141  A    between atoms: _352  and  _353
REMARK  142  A    between atoms: _352  and  _355
REMARK  143  A    between atoms: _355  and  _356
REMARK  144  A    between atoms: _361  and  _363
REMARK  145  A    between atoms: _363  and  _364
REMARK  146  A    between atoms: _363  and  _366
REMARK  147  A    between atoms: _366  and  _367
REMARK  148  A    between atoms: _370  and  _372
REMARK  149  A    between atoms: _372  and  _373
REMARK  150  A    between atoms: _372  and  _375
REMARK  151  A    between atoms: _375  and  _376
REMARK  152  A    between atoms: _381  and  _383
REMARK  153  A    between atoms: _383  and  _384
REMARK  154  A    between atoms: _383  and  _386
REMARK  155  A    between atoms: _386  and  _387
REMARK  156  A    between atoms: _397  and  _399
REMARK  157  A    between atoms: _399  and  _400
REMARK  158  A    between atoms: _399  and  _402
REMARK  159  A    between atoms: _402  and  _403
REMARK  160  A    between atoms: _409  and  _411
REMARK  161  A    between atoms: _411  and  _412
REMARK  162  A    between atoms: _411  and  _414
REMARK  163  A    between atoms: _414  and  _415
REMARK  164  A    between atoms: _418  and  _420
REMARK  165  A    between atoms: _420  and  _421
REMARK  166  A    between atoms: _420  and  _423
REMARK  167  A    between atoms: _423  and  _424
REMARK  168  A    between atoms: _424  and  _425
REMARK  169  A    between atoms: _425  and  _426
REMARK  170  A    between atoms: _435  and  _437
REMARK  171  A    between atoms: _437  and  _438
REMARK  172  A    between atoms: _437  and  _440
REMARK  173  A    between atoms: _440  and  _441
REMARK  174  A    between atoms: _446  and  _448
REMARK  175  A    between atoms: _448  and  _449
REMARK  176  A    between atoms: _448  and  _451
REMARK  177  A    between atoms: _451  and  _452
REMARK  178  A    between atoms: _452  and  _453
REMARK  179  A    between atoms: _453  and  _454
REMARK  180  A    between atoms: _463  and  _465
REMARK  181  A    between atoms: _465  and  _466
REMARK  182  A    between atoms: _469  and  _471
REMARK  183  A    between atoms: _471  and  _472
REMARK  184  A    between atoms: _474  and  _476
REMARK  185  A    between atoms: _476  and  _477
REMARK  186  A    between atoms: _476  and  _479
REMARK  187  A    between atoms: _479  and  _480
REMARK  188  A    between atoms: _490  and  _492
REMARK  189  A    between atoms: _492  and  _493
REMARK  190  A    between atoms: _492  and  _495
REMARK  191  A    between atoms: _495  and  _496
REMARK  192  A    between atoms: _497  and  _499
REMARK  193  A    between atoms: _499  and  _500
REMARK  194  A    between atoms: _503  and  _505
REMARK  195  A    between atoms: _505  and  _506
REMARK  196  A    between atoms: _505  and  _508
REMARK  197  A    between atoms: _508  and  _509
REMARK  198  A    between atoms: _512  and  _514
REMARK  199  A    between atoms: _514  and  _515
REMARK  200  A    between atoms: _514  and  _517
REMARK  201  A    between atoms: _517  and  _518
REMARK  202  A    between atoms: _523  and  _524
REMARK  203  A    between atoms: _526  and  _528
REMARK  204  A    between atoms: _528  and  _529
REMARK  205  A    between atoms: _528  and  _531
REMARK  206  A    between atoms: _531  and  _532
REMARK  207  A    between atoms: _534  and  _536
REMARK  208  A    between atoms: _536  and  _537
REMARK  209  A    between atoms: _536  and  _539
REMARK  210  A    between atoms: _539  and  _540
REMARK  211  A    between atoms: _546  and  _548
REMARK  212  A    between atoms: _548  and  _549
REMARK  213  A    between atoms: _548  and  _551
REMARK  214  A    between atoms: _551  and  _552
REMARK  215  A    between atoms: _555  and  _557
REMARK  216  A    between atoms: _557  and  _558
REMARK  217  A    between atoms: _557  and  _560
REMARK  218  A    between atoms: _560  and  _561
REMARK  219  A    between atoms: _563  and  _565
REMARK  220  A    between atoms: _565  and  _566
REMARK  221  A    between atoms: _565  and  _568
REMARK  222  A    between atoms: _568  and  _569
REMARK  223  A    between atoms: _574  and  _576
REMARK  224  A    between atoms: _576  and  _577
REMARK  225  A    between atoms: _576  and  _579
REMARK  226  A    between atoms: _579  and  _580
REMARK  227  A    between atoms: _585  and  _587
REMARK  228  A    between atoms: _587  and  _588
REMARK  229  A    between atoms: _587  and  _590
REMARK  230  A    between atoms: _590  and  _591
REMARK  231  A    between atoms: _594  and  _596
REMARK  232  A    between atoms: _596  and  _597
REMARK  233  A    between atoms: _600  and  _602
REMARK  234  A    between atoms: _602  and  _603
REMARK  235  A    between atoms: _602  and  _605
REMARK  236  A    between atoms: _605  and  _606
REMARK  237  A    between atoms: _611  and  _612
REMARK  238  A    between atoms: _614  and  _616
REMARK  239  A    between atoms: _616  and  _617
REMARK  240  A    between atoms: _616  and  _619
REMARK  241  A    between atoms: _619  and  _620
REMARK  242  A    between atoms: _625  and  _626
REMARK  243  A    between atoms: _628  and  _630
REMARK  244  A    between atoms: _630  and  _631
REMARK  245  A    between atoms: _630  and  _633
REMARK  246  A    between atoms: _636  and  _638
REMARK  247  A    between atoms: _638  and  _639
REMARK  248  A    between atoms: _638  and  _641
REMARK  249  A    between atoms: _641  and  _642
REMARK  250  A    between atoms: _647  and  _649
REMARK  251  A    between atoms: _649  and  _650
REMARK  252  A    between atoms: _653  and  _655
REMARK  253  A    between atoms: _655  and  _656
REMARK  254  A    between atoms: _655  and  _658
REMARK  255  A    between atoms: _658  and  _659
REMARK  256  A    between atoms: _659  and  _660
REMARK  257  A    between atoms: _660  and  _661
REMARK  258  A    between atoms: _670  and  _672
REMARK  259  A    between atoms: _672  and  _673
REMARK  260  A    between atoms: _672  and  _675
REMARK  261  A    between atoms: _675  and  _676
REMARK  262  A    between atoms: _679  and  _681
REMARK  263  A    between atoms: _681  and  _682
REMARK  264  A    between atoms: _681  and  _684
REMARK  265  A    between atoms: _684  and  _685
REMARK  266  A    between atoms: _688  and  _690
REMARK  267  A    between atoms: _690  and  _691
REMARK  268  A    between atoms: _690  and  _693
REMARK  269  A    between atoms: _693  and  _694
REMARK                            x       y       z     vdW  Elec       q    Type
REMARK                         _______ _______ _______ _____ _____    ______ ____
ROOT
ATOM      1  O   HOH     1      -9.947  16.181  14.548  0.00  0.00    +0.000 OA
ENDROOT
TORSDOF 0
REMARK  Name = ../refined-set-2016/1b3f/1b3f_pocket.pdb
REMARK  269 active torsions:
REMARK  status: ('A' for Active; 'I' for Inactive)
REMARK    1  A    between atoms: _1  and  _3
REMARK    2  A    between atoms: _3  and  _4
REMARK    3  A    between atoms: _3  and  _6
REMARK    4  A    between atoms: _6  and  _7
REMARK    5  A    between atoms: _12  and  _14
REMARK    6  A    between atoms: _14  and  _15
REMARK    7  A    between atoms: _17  and  _19
REMARK    8  A    between atoms: _19  and  _20
REMARK    9  A    between atoms: _19  and  _22
REMARK   10  A    between atoms: _22  and  _23
REMARK   11  A    between atoms: _25  and  _27
REMARK   12  A    between atoms: _27  and  _28
REMARK   13  A    between atoms: _27  and  _30
REMARK   14  A    between atoms: _30  and  _31
REMARK   15  A    between atoms: _31  and  _32
REMARK   16  A    between atoms: _37  and  _39
REMARK   17  A    between atoms: _39  and  _40
REMARK   18  A    between atoms: _39  and  _42
REMARK   19  A    between atoms: _42  and  _43
REMARK   20  A    between atoms: _46  and  _48
REMARK   21  A    between atoms: _48  and  _49
REMARK   22  A    between atoms: _48  and  _51
REMARK   23  A    between atoms: _52  and  _53
REMARK   24  A    between atoms: _56  and  _58
REMARK   25  A    between atoms: _58  and  _59
REMARK   26  A    between atoms: _61  and  _63
REMARK   27  A    between atoms: _63  and  _64
REMARK   28  A    between atoms: _63  and  _66
REMARK   29  A    between atoms: _70  and  _71
REMARK   30  A    between atoms: _76  and  _78
REMARK   31  A    between atoms: _78  and  _79
REMARK   32  A    between atoms: _78  and  _81
REMARK   33  A    between atoms: _81  and  _82
REMARK   34  A    between atoms: _82  and  _83
REMARK   35  A    between atoms: _86  and  _88
REMARK   36  A    between atoms: _88  and  _89
REMARK   37  A    between atoms: _88  and  _91
REMARK   38  A    between atoms: _91  and  _92
REMARK   39  A    between atoms: _94  and  _96
REMARK   40  A    between atoms: _96  and  _97
REMARK   41  A    between atoms: _96  and  _99
REMARK   42  A    between atoms: _99  and  _100
REMARK   43  A    between atoms: _105  and  _107
REMARK   44  A    between atoms: _107  and  _108
REMARK   45  A    between atoms: _107  and  _110
REMARK   46  A    between atoms: _110  and  _111
REMARK   47  A    between atoms: _111  and  _112
REMARK   48  A    between atoms: _112  and  _113
REMARK   49  A    between atoms: _123  and  _124
REMARK   50  A    between atoms: _129  and  _131
REMARK   51  A    between atoms: _131  and  _132
REMARK   52  A    between atoms: _131  and  _134
REMARK   53  A    between atoms: _134  and  _135
REMARK   54  A    between atoms: _140  and  _141
REMARK   55  A    between atoms: _143  and  _145
REMARK   56  A    between atoms: _145  and  _146
REMARK   57  A    between atoms: _145  and  _148
REMARK   58  A    between atoms: _148  and  _149
REMARK   59  A    between atoms: _154  and  _155
REMARK   60  A    between atoms: _157  and  _159
REMARK   61  A    between atoms: _159  and  _160
REMARK   62  A    between atoms: _159  and  _162
REMARK   63  A    between atoms: _165  and  _167
REMARK   64  A    between atoms: _167  and  _168
REMARK   65  A    between atoms: _167  and  _170
REMARK   66  A    between atoms: _170  and  _171
REMARK   67  A    between atoms: _177  and  _178
REMARK   68  A    between atoms: _183  and  _185
REMARK   69  A    between atoms: _185  and  _186
REMARK   70  A    between atoms: _185  and  _188
REMARK   71  A    between atoms: _188  and  _189
REMARK   72  A    between atoms: _191  and  _193
REMARK   73  A    between atoms: _193  and  _194
REMARK   74  A    between atoms: _193  and  _196
REMARK   75  A    between atoms: _196  and  _197
REMARK   76  A    between atoms: _197  and  _198
REMARK   77  A    between atoms: _201  and  _203
REMARK   78  A    between atoms: _203  and  _204
REMARK   79  A    between atoms: _203  and  _206
REMARK   80  A    between atoms: _206  and  _207
REMARK   81  A    between atoms: _212  and  _213
REMARK   82  A    between atoms: _215  and  _217
REMARK   83  A    between atoms: _217  and  _218
REMARK   84  A    between atoms: _217  and  _220
REMARK   85  A    between atoms: _220  and  _221
REMARK   86  A    between atoms: _226  and  _228
REMARK   87  A    between atoms: _228  and  _229
REMARK   88  A    between atoms: _228  and  _231
REMARK   89  A    between atoms: _231  and  _232
REMARK   90  A    between atoms: _237  and  _239
REMARK   91  A    between atoms: _239  and  _240
REMARK   92  A    between atoms: _239  and  _242
REMARK   93  A    between atoms: _242  and  _243
REMARK   94  A    between atoms: _243  and  _244
REMARK   95  A    between atoms: _246  and  _248
REMARK   96  A    between atoms: _248  and  _249
REMARK   97  A    between atoms: _248  and  _251
REMARK   98  A    between atoms: _251  and  _252
REMARK   99  A    between atoms: _257  and  _258
REMARK  100  A    between atoms: _260  and  _262
REMARK  101  A    between atoms: _262  and  _263
REMARK  102  A    between atoms: _262  and  _265
REMARK  103  A    between atoms: _265  and  _266
REMARK  104  A    between atoms: _269  and  _271
REMARK  105  A    between atoms: _271  and  _272
REMARK  106  A    between atoms: _271  and  _274
REMARK  107  A    between atoms: _274  and  _275
REMARK  108  A    between atoms: _275  and  _496
REMARK  109  A    between atoms: _276  and  _278
REMARK  110  A    between atoms: _278  and  _279
REMARK  111  A    between atoms: _278  and  _281
REMARK  112  A    between atoms: _281  and  _282
REMARK  113  A    between atoms: _285  and  _287
REMARK  114  A    between atoms: _287  and  _288
REMARK  115  A    between atoms: _287  and  _290
REMARK  116  A    between atoms: _290  and  _291
REMARK  117  A    between atoms: _296  and  _297
REMARK  118  A    between atoms: _299  and  _301
REMARK  119  A    between atoms: _301  and  _302
REMARK  120  A    between atoms: _301  and  _304
REMARK  121  A    between atoms: _304  and  _305
REMARK  122  A    between atoms: _310  and  _311
REMARK  123  A    between atoms: _313  and  _315
REMARK  124  A    between atoms: _315  and  _316
REMARK  125  A    between atoms: _315  and  _318
REMARK  126  A    between atoms: _318  and  _319
REMARK  127  A    between atoms: _319  and  _320
REMARK  128  A    between atoms: _323  and  _325
REMARK  129  A    between atoms: _325  and  _326
REMARK  130  A    between atoms: _325  and  _328
REMARK  131  A    between atoms: _328  and  _329
REMARK  132  A    between atoms: _329  and  _330
REMARK  133  A    between atoms: _330  and  _331
REMARK  134  A    between atoms: _331  and  _332
REMARK  135  A    between atoms: _336  and  _338
REMARK  136  A    between atoms: _338  and  _339
REMARK  137  A    between atoms: _338  and  _341
REMARK  138  A    between atoms: _341  and  _342
REMARK  139  A    between atoms: _347  and  _348
REMARK  140  A    between atoms: _350  and  _352
REMARK  141  A    between atoms: _352  and  _353
REMARK  142  A    between atoms: _352  and  _355
REMARK  143  A    between atoms: _355  and  _356
REMARK  144  A    between atoms: _361  and  _363
REMARK  145  A    between atoms: _363  and  _364
REMARK  146  A    between atoms: _363  and  _366
REMARK  147  A    between atoms: _366  and  _367
REMARK  148  A    between atoms: _370  and  _372
REMARK  149  A    between atoms: _372  and  _373
REMARK  150  A    between atoms: _372  and  _375
REMARK  151  A    between atoms: _375  and  _376
REMARK  152  A    between atoms: _381  and  _383
REMARK  153  A    between atoms: _383  and  _384
REMARK  154  A    between atoms: _383  and  _386
REMARK  155  A    between atoms: _386  and  _387
REMARK  156  A    between atoms: _397  and  _399
REMARK  157  A    between atoms: _399  and  _400
REMARK  158  A    between atoms: _399  and  _402
REMARK  159  A    between atoms: _402  and  _403
REMARK  160  A    between atoms: _409  and  _411
REMARK  161  A    between atoms: _411  and  _412
REMARK  162  A    between atoms: _411  and  _414
REMARK  163  A    between atoms: _414  and  _415
REMARK  164  A    between atoms: _418  and  _420
REMARK  165  A    between atoms: _420  and  _421
REMARK  166  A    between atoms: _420  and  _423
REMARK  167  A    between atoms: _423  and  _424
REMARK  168  A    between atoms: _424  and  _425
REMARK  169  A    between atoms: _425  and  _426
REMARK  170  A    between atoms: _435  and  _437
REMARK  171  A    between atoms: _437  and  _438
REMARK  172  A    between atoms: _437  and  _440
REMARK  173  A    between atoms: _440  and  _441
REMARK  174  A    between atoms: _446  and  _448
REMARK  175  A    between atoms: _448  and  _449
REMARK  176  A    between atoms: _448  and  _451
REMARK  177  A    between atoms: _451  and  _452
REMARK  178  A    between atoms: _452  and  _453
REMARK  179  A    between atoms: _453  and  _454
REMARK  180  A    between atoms: _463  and  _465
REMARK  181  A    between atoms: _465  and  _466
REMARK  182  A    between atoms: _469  and  _471
REMARK  183  A    between atoms: _471  and  _472
REMARK  184  A    between atoms: _474  and  _476
REMARK  185  A    between atoms: _476  and  _477
REMARK  186  A    between atoms: _476  and  _479
REMARK  187  A    between atoms: _479  and  _480
REMARK  188  A    between atoms: _490  and  _492
REMARK  189  A    between atoms: _492  and  _493
REMARK  190  A    between atoms: _492  and  _495
REMARK  191  A    between atoms: _495  and  _496
REMARK  192  A    between atoms: _497  and  _499
REMARK  193  A    between atoms: _499  and  _500
REMARK  194  A    between atoms: _503  and  _505
REMARK  195  A    between atoms: _505  and  _506
REMARK  196  A    between atoms: _505  and  _508
REMARK  197  A    between atoms: _508  and  _509
REMARK  198  A    between atoms: _512  and  _514
REMARK  199  A    between atoms: _514  and  _515
REMARK  200  A    between atoms: _514  and  _517
REMARK  201  A    between atoms: _517  and  _518
REMARK  202  A    between atoms: _523  and  _524
REMARK  203  A    between atoms: _526  and  _528
REMARK  204  A    between atoms: _528  and  _529
REMARK  205  A    between atoms: _528  and  _531
REMARK  206  A    between atoms: _531  and  _532
REMARK  207  A    between atoms: _534  and  _536
REMARK  208  A    between atoms: _536  and  _537
REMARK  209  A    between atoms: _536  and  _539
REMARK  210  A    between atoms: _539  and  _540
REMARK  211  A    between atoms: _546  and  _548
REMARK  212  A    between atoms: _548  and  _549
REMARK  213  A    between atoms: _548  and  _551
REMARK  214  A    between atoms: _551  and  _552
REMARK  215  A    between atoms: _555  and  _557
REMARK  216  A    between atoms: _557  and  _558
REMARK  217  A    between atoms: _557  and  _560
REMARK  218  A    between atoms: _560  and  _561
REMARK  219  A    between atoms: _563  and  _565
REMARK  220  A    between atoms: _565  and  _566
REMARK  221  A    between atoms: _565  and  _568
REMARK  222  A    between atoms: _568  and  _569
REMARK  223  A    between atoms: _574  and  _576
REMARK  224  A    between atoms: _576  and  _577
REMARK  225  A    between atoms: _576  and  _579
REMARK  226  A    between atoms: _579  and  _580
REMARK  227  A    between atoms: _585  and  _587
REMARK  228  A    between atoms: _587  and  _588
REMARK  229  A    between atoms: _587  and  _590
REMARK  230  A    between atoms: _590  and  _591
REMARK  231  A    between atoms: _594  and  _596
REMARK  232  A    between atoms: _596  and  _597
REMARK  233  A    between atoms: _600  and  _602
REMARK  234  A    between atoms: _602  and  _603
REMARK  235  A    between atoms: _602  and  _605
REMARK  236  A    between atoms: _605  and  _606
REMARK  237  A    between atoms: _611  and  _612
REMARK  238  A    between atoms: _614  and  _616
REMARK  239  A    between atoms: _616  and  _617
REMARK  240  A    between atoms: _616  and  _619
REMARK  241  A    between atoms: _619  and  _620
REMARK  242  A    between atoms: _625  and  _626
REMARK  243  A    between atoms: _628  and  _630
REMARK  244  A    between atoms: _630  and  _631
REMARK  245  A    between atoms: _630  and  _633
REMARK  246  A    between atoms: _636  and  _638
REMARK  247  A    between atoms: _638  and  _639
REMARK  248  A    between atoms: _638  and  _641
REMARK  249  A    between atoms: _641  and  _642
REMARK  250  A    between atoms: _647  and  _649
REMARK  251  A    between atoms: _649  and  _650
REMARK  252  A    between atoms: _653  and  _655
REMARK  253  A    between atoms: _655  and  _656
REMARK  254  A    between atoms: _655  and  _658
REMARK  255  A    between atoms: _658  and  _659
REMARK  256  A    between atoms: _659  and  _660
REMARK  257  A    between atoms: _660  and  _661
REMARK  258  A    between atoms: _670  and  _672
REMARK  259  A    between atoms: _672  and  _673
REMARK  260  A    between atoms: _672  and  _675
REMARK  261  A    between atoms: _675  and  _676
REMARK  262  A    between atoms: _679  and  _681
REMARK  263  A    between atoms: _681  and  _682
REMARK  264  A    between atoms: _681  and  _684
REMARK  265  A    between atoms: _684  and  _685
REMARK  266  A    between atoms: _688  and  _690
REMARK  267  A    between atoms: _690  and  _691
REMARK  268  A    between atoms: _690  and  _693
REMARK  269  A    between atoms: _693  and  _694
REMARK                            x       y       z     vdW  Elec       q    Type
REMARK                         _______ _______ _______ _____ _____    ______ ____
ROOT
ATOM      1  O   HOH     1       8.637  13.233   7.214  0.00  0.00    +0.000 OA
ENDROOT
TORSDOF 0
REMARK  Name = ../refined-set-2016/1b3f/1b3f_pocket.pdb
REMARK  269 active torsions:
REMARK  status: ('A' for Active; 'I' for Inactive)
REMARK    1  A    between atoms: _1  and  _3
REMARK    2  A    between atoms: _3  and  _4
REMARK    3  A    between atoms: _3  and  _6
REMARK    4  A    between atoms: _6  and  _7
REMARK    5  A    between atoms: _12  and  _14
REMARK    6  A    between atoms: _14  and  _15
REMARK    7  A    between atoms: _17  and  _19
REMARK    8  A    between atoms: _19  and  _20
REMARK    9  A    between atoms: _19  and  _22
REMARK   10  A    between atoms: _22  and  _23
REMARK   11  A    between atoms: _25  and  _27
REMARK   12  A    between atoms: _27  and  _28
REMARK   13  A    between atoms: _27  and  _30
REMARK   14  A    between atoms: _30  and  _31
REMARK   15  A    between atoms: _31  and  _32
REMARK   16  A    between atoms: _37  and  _39
REMARK   17  A    between atoms: _39  and  _40
REMARK   18  A    between atoms: _39  and  _42
REMARK   19  A    between atoms: _42  and  _43
REMARK   20  A    between atoms: _46  and  _48
REMARK   21  A    between atoms: _48  and  _49
REMARK   22  A    between atoms: _48  and  _51
REMARK   23  A    between atoms: _52  and  _53
REMARK   24  A    between atoms: _56  and  _58
REMARK   25  A    between atoms: _58  and  _59
REMARK   26  A    between atoms: _61  and  _63
REMARK   27  A    between atoms: _63  and  _64
REMARK   28  A    between atoms: _63  and  _66
REMARK   29  A    between atoms: _70  and  _71
REMARK   30  A    between atoms: _76  and  _78
REMARK   31  A    between atoms: _78  and  _79
REMARK   32  A    between atoms: _78  and  _81
REMARK   33  A    between atoms: _81  and  _82
REMARK   34  A    between atoms: _82  and  _83
REMARK   35  A    between atoms: _86  and  _88
REMARK   36  A    between atoms: _88  and  _89
REMARK   37  A    between atoms: _88  and  _91
REMARK   38  A    between atoms: _91  and  _92
REMARK   39  A    between atoms: _94  and  _96
REMARK   40  A    between atoms: _96  and  _97
REMARK   41  A    between atoms: _96  and  _99
REMARK   42  A    between atoms: _99  and  _100
REMARK   43  A    between atoms: _105  and  _107
REMARK   44  A    between atoms: _107  and  _108
REMARK   45  A    between atoms: _107  and  _110
REMARK   46  A    between atoms: _110  and  _111
REMARK   47  A    between atoms: _111  and  _112
REMARK   48  A    between atoms: _112  and  _113
REMARK   49  A    between atoms: _123  and  _124
REMARK   50  A    between atoms: _129  and  _131
REMARK   51  A    between atoms: _131  and  _132
REMARK   52  A    between atoms: _131  and  _134
REMARK   53  A    between atoms: _134  and  _135
REMARK   54  A    between atoms: _140  and  _141
REMARK   55  A    between atoms: _143  and  _145
REMARK   56  A    between atoms: _145  and  _146
REMARK   57  A    between atoms: _145  and  _148
REMARK   58  A    between atoms: _148  and  _149
REMARK   59  A    between atoms: _154  and  _155
REMARK   60  A    between atoms: _157  and  _159
REMARK   61  A    between atoms: _159  and  _160
REMARK   62  A    between atoms: _159  and  _162
REMARK   63  A    between atoms: _165  and  _167
REMARK   64  A    between atoms: _167  and  _168
REMARK   65  A    between atoms: _167  and  _170
REMARK   66  A    between atoms: _170  and  _171
REMARK   67  A    between atoms: _177  and  _178
REMARK   68  A    between atoms: _183  and  _185
REMARK   69  A    between atoms: _185  and  _186
REMARK   70  A    between atoms: _185  and  _188
REMARK   71  A    between atoms: _188  and  _189
REMARK   72  A    between atoms: _191  and  _193
REMARK   73  A    between atoms: _193  and  _194
REMARK   74  A    between atoms: _193  and  _196
REMARK   75  A    between atoms: _196  and  _197
REMARK   76  A    between atoms: _197  and  _198
REMARK   77  A    between atoms: _201  and  _203
REMARK   78  A    between atoms: _203  and  _204
REMARK   79  A    between atoms: _203  and  _206
REMARK   80  A    between atoms: _206  and  _207
REMARK   81  A    between atoms: _212  and  _213
REMARK   82  A    between atoms: _215  and  _217
REMARK   83  A    between atoms: _217  and  _218
REMARK   84  A    between atoms: _217  and  _220
REMARK   85  A    between atoms: _220  and  _221
REMARK   86  A    between atoms: _226  and  _228
REMARK   87  A    between atoms: _228  and  _229
REMARK   88  A    between atoms: _228  and  _231
REMARK   89  A    between atoms: _231  and  _232
REMARK   90  A    between atoms: _237  and  _239
REMARK   91  A    between atoms: _239  and  _240
REMARK   92  A    between atoms: _239  and  _242
REMARK   93  A    between atoms: _242  and  _243
REMARK   94  A    between atoms: _243  and  _244
REMARK   95  A    between atoms: _246  and  _248
REMARK   96  A    between atoms: _248  and  _249
REMARK   97  A    between atoms: _248  and  _251
REMARK   98  A    between atoms: _251  and  _252
REMARK   99  A    between atoms: _257  and  _258
REMARK  100  A    between atoms: _260  and  _262
REMARK  101  A    between atoms: _262  and  _263
REMARK  102  A    between atoms: _262  and  _265
REMARK  103  A    between atoms: _265  and  _266
REMARK  104  A    between atoms: _269  and  _271
REMARK  105  A    between atoms: _271  and  _272
REMARK  106  A    between atoms: _271  and  _274
REMARK  107  A    between atoms: _274  and  _275
REMARK  108  A    between atoms: _275  and  _496
REMARK  109  A    between atoms: _276  and  _278
REMARK  110  A    between atoms: _278  and  _279
REMARK  111  A    between atoms: _278  and  _281
REMARK  112  A    between atoms: _281  and  _282
REMARK  113  A    between atoms: _285  and  _287
REMARK  114  A    between atoms: _287  and  _288
REMARK  115  A    between atoms: _287  and  _290
REMARK  116  A    between atoms: _290  and  _291
REMARK  117  A    between atoms: _296  and  _297
REMARK  118  A    between atoms: _299  and  _301
REMARK  119  A    between atoms: _301  and  _302
REMARK  120  A    between atoms: _301  and  _304
REMARK  121  A    between atoms: _304  and  _305
REMARK  122  A    between atoms: _310  and  _311
REMARK  123  A    between atoms: _313  and  _315
REMARK  124  A    between atoms: _315  and  _316
REMARK  125  A    between atoms: _315  and  _318
REMARK  126  A    between atoms: _318  and  _319
REMARK  127  A    between atoms: _319  and  _320
REMARK  128  A    between atoms: _323  and  _325
REMARK  129  A    between atoms: _325  and  _326
REMARK  130  A    between atoms: _325  and  _328
REMARK  131  A    between atoms: _328  and  _329
REMARK  132  A    between atoms: _329  and  _330
REMARK  133  A    between atoms: _330  and  _331
REMARK  134  A    between atoms: _331  and  _332
REMARK  135  A    between atoms: _336  and  _338
REMARK  136  A    between atoms: _338  and  _339
REMARK  137  A    between atoms: _338  and  _341
REMARK  138  A    between atoms: _341  and  _342
REMARK  139  A    between atoms: _347  and  _348
REMARK  140  A    between atoms: _350  and  _352
REMARK  141  A    between atoms: _352  and  _353
REMARK  142  A    between atoms: _352  and  _355
REMARK  143  A    between atoms: _355  and  _356
REMARK  144  A    between atoms: _361  and  _363
REMARK  145  A    between atoms: _363  and  _364
REMARK  146  A    between atoms: _363  and  _366
REMARK  147  A    between atoms: _366  and  _367
REMARK  148  A    between atoms: _370  and  _372
REMARK  149  A    between atoms: _372  and  _373
REMARK  150  A    between atoms: _372  and  _375
REMARK  151  A    between atoms: _375  and  _376
REMARK  152  A    between atoms: _381  and  _383
REMARK  153  A    between atoms: _383  and  _384
REMARK  154  A    between atoms: _383  and  _386
REMARK  155  A    between atoms: _386  and  _387
REMARK  156  A    between atoms: _397  and  _399
REMARK  157  A    between atoms: _399  and  _400
REMARK  158  A    between atoms: _399  and  _402
REMARK  159  A    between atoms: _402  and  _403
REMARK  160  A    between atoms: _409  and  _411
REMARK  161  A    between atoms: _411  and  _412
REMARK  162  A    between atoms: _411  and  _414
REMARK  163  A    between atoms: _414  and  _415
REMARK  164  A    between atoms: _418  and  _420
REMARK  165  A    between atoms: _420  and  _421
REMARK  166  A    between atoms: _420  and  _423
REMARK  167  A    between atoms: _423  and  _424
REMARK  168  A    between atoms: _424  and  _425
REMARK  169  A    between atoms: _425  and  _426
REMARK  170  A    between atoms: _435  and  _437
REMARK  171  A    between atoms: _437  and  _438
REMARK  172  A    between atoms: _437  and  _440
REMARK  173  A    between atoms: _440  and  _441
REMARK  174  A    between atoms: _446  and  _448
REMARK  175  A    between atoms: _448  and  _449
REMARK  176  A    between atoms: _448  and  _451
REMARK  177  A    between atoms: _451  and  _452
REMARK  178  A    between atoms: _452  and  _453
REMARK  179  A    between atoms: _453  and  _454
REMARK  180  A    between atoms: _463  and  _465
REMARK  181  A    between atoms: _465  and  _466
REMARK  182  A    between atoms: _469  and  _471
REMARK  183  A    between atoms: _471  and  _472
REMARK  184  A    between atoms: _474  and  _476
REMARK  185  A    between atoms: _476  and  _477
REMARK  186  A    between atoms: _476  and  _479
REMARK  187  A    between atoms: _479  and  _480
REMARK  188  A    between atoms: _490  and  _492
REMARK  189  A    between atoms: _492  and  _493
REMARK  190  A    between atoms: _492  and  _495
REMARK  191  A    between atoms: _495  and  _496
REMARK  192  A    between atoms: _497  and  _499
REMARK  193  A    between atoms: _499  and  _500
REMARK  194  A    between atoms: _503  and  _505
REMARK  195  A    between atoms: _505  and  _506
REMARK  196  A    between atoms: _505  and  _508
REMARK  197  A    between atoms: _508  and  _509
REMARK  198  A    between atoms: _512  and  _514
REMARK  199  A    between atoms: _514  and  _515
REMARK  200  A    between atoms: _514  and  _517
REMARK  201  A    between atoms: _517  and  _518
REMARK  202  A    between atoms: _523  and  _524
REMARK  203  A    between atoms: _526  and  _528
REMARK  204  A    between atoms: _528  and  _529
REMARK  205  A    between atoms: _528  and  _531
REMARK  206  A    between atoms: _531  and  _532
REMARK  207  A    between atoms: _534  and  _536
REMARK  208  A    between atoms: _536  and  _537
REMARK  209  A    between atoms: _536  and  _539
REMARK  210  A    between atoms: _539  and  _540
REMARK  211  A    between atoms: _546  and  _548
REMARK  212  A    between atoms: _548  and  _549
REMARK  213  A    between atoms: _548  and  _551
REMARK  214  A    between atoms: _551  and  _552
REMARK  215  A    between atoms: _555  and  _557
REMARK  216  A    between atoms: _557  and  _558
REMARK  217  A    between atoms: _557  and  _560
REMARK  218  A    between atoms: _560  and  _561
REMARK  219  A    between atoms: _563  and  _565
REMARK  220  A    between atoms: _565  and  _566
REMARK  221  A    between atoms: _565  and  _568
REMARK  222  A    between atoms: _568  and  _569
REMARK  223  A    between atoms: _574  and  _576
REMARK  224  A    between atoms: _576  and  _577
REMARK  225  A    between atoms: _576  and  _579
REMARK  226  A    between atoms: _579  and  _580
REMARK  227  A    between atoms: _585  and  _587
REMARK  228  A    between atoms: _587  and  _588
REMARK  229  A    between atoms: _587  and  _590
REMARK  230  A    between atoms: _590  and  _591
REMARK  231  A    between atoms: _594  and  _596
REMARK  232  A    between atoms: _596  and  _597
REMARK  233  A    between atoms: _600  and  _602
REMARK  234  A    between atoms: _602  and  _603
REMARK  235  A    between atoms: _602  and  _605
REMARK  236  A    between atoms: _605  and  _606
REMARK  237  A    between atoms: _611  and  _612
REMARK  238  A    between atoms: _614  and  _616
REMARK  239  A    between atoms: _616  and  _617
REMARK  240  A    between atoms: _616  and  _619
REMARK  241  A    between atoms: _619  and  _620
REMARK  242  A    between atoms: _625  and  _626
REMARK  243  A    between atoms: _628  and  _630
REMARK  244  A    between atoms: _630  and  _631
REMARK  245  A    between atoms: _630  and  _633
REMARK  246  A    between atoms: _636  and  _638
REMARK  247  A    between atoms: _638  and  _639
REMARK  248  A    between atoms: _638  and  _641
REMARK  249  A    between atoms: _641  and  _642
REMARK  250  A    between atoms: _647  and  _649
REMARK  251  A    between atoms: _649  and  _650
REMARK  252  A    between atoms: _653  and  _655
REMARK  253  A    between atoms: _655  and  _656
REMARK  254  A    between atoms: _655  and  _658
REMARK  255  A    between atoms: _658  and  _659
REMARK  256  A    between atoms: _659  and  _660
REMARK  257  A    between atoms: _660  and  _661
REMARK  258  A    between atoms: _670  and  _672
REMARK  259  A    between atoms: _672  and  _673
REMARK  260  A    between atoms: _672  and  _675
REMARK  261  A    between atoms: _675  and  _676
REMARK  262  A    between atoms: _679  and  _681
REMARK  263  A    between atoms: _681  and  _682
REMARK  264  A    between atoms: _681  and  _684
REMARK  265  A    between atoms: _684  and  _685
REMARK  266  A    between atoms: _688  and  _690
REMARK  267  A    between atoms: _690  and  _691
REMARK  268  A    between atoms: _690  and  _693
REMARK  269  A    between atoms: _693  and  _694
REMARK                            x       y       z     vdW  Elec       q    Type
REMARK                         _______ _______ _______ _____ _____    ______ ____
ROOT
ATOM      1  O   HOH     1       3.605  12.677  12.062  0.00  0.00    +0.000 OA
ENDROOT
TORSDOF 0
REMARK  Name = ../refined-set-2016/1b3f/1b3f_pocket.pdb
REMARK  269 active torsions:
REMARK  status: ('A' for Active; 'I' for Inactive)
REMARK    1  A    between atoms: _1  and  _3
REMARK    2  A    between atoms: _3  and  _4
REMARK    3  A    between atoms: _3  and  _6
REMARK    4  A    between atoms: _6  and  _7
REMARK    5  A    between atoms: _12  and  _14
REMARK    6  A    between atoms: _14  and  _15
REMARK    7  A    between atoms: _17  and  _19
REMARK    8  A    between atoms: _19  and  _20
REMARK    9  A    between atoms: _19  and  _22
REMARK   10  A    between atoms: _22  and  _23
REMARK   11  A    between atoms: _25  and  _27
REMARK   12  A    between atoms: _27  and  _28
REMARK   13  A    between atoms: _27  and  _30
REMARK   14  A    between atoms: _30  and  _31
REMARK   15  A    between atoms: _31  and  _32
REMARK   16  A    between atoms: _37  and  _39
REMARK   17  A    between atoms: _39  and  _40
REMARK   18  A    between atoms: _39  and  _42
REMARK   19  A    between atoms: _42  and  _43
REMARK   20  A    between atoms: _46  and  _48
REMARK   21  A    between atoms: _48  and  _49
REMARK   22  A    between atoms: _48  and  _51
REMARK   23  A    between atoms: _52  and  _53
REMARK   24  A    between atoms: _56  and  _58
REMARK   25  A    between atoms: _58  and  _59
REMARK   26  A    between atoms: _61  and  _63
REMARK   27  A    between atoms: _63  and  _64
REMARK   28  A    between atoms: _63  and  _66
REMARK   29  A    between atoms: _70  and  _71
REMARK   30  A    between atoms: _76  and  _78
REMARK   31  A    between atoms: _78  and  _79
REMARK   32  A    between atoms: _78  and  _81
REMARK   33  A    between atoms: _81  and  _82
REMARK   34  A    between atoms: _82  and  _83
REMARK   35  A    between atoms: _86  and  _88
REMARK   36  A    between atoms: _88  and  _89
REMARK   37  A    between atoms: _88  and  _91
REMARK   38  A    between atoms: _91  and  _92
REMARK   39  A    between atoms: _94  and  _96
REMARK   40  A    between atoms: _96  and  _97
REMARK   41  A    between atoms: _96  and  _99
REMARK   42  A    between atoms: _99  and  _100
REMARK   43  A    between atoms: _105  and  _107
REMARK   44  A    between atoms: _107  and  _108
REMARK   45  A    between atoms: _107  and  _110
REMARK   46  A    between atoms: _110  and  _111
REMARK   47  A    between atoms: _111  and  _112
REMARK   48  A    between atoms: _112  and  _113
REMARK   49  A    between atoms: _123  and  _124
REMARK   50  A    between atoms: _129  and  _131
REMARK   51  A    between atoms: _131  and  _132
REMARK   52  A    between atoms: _131  and  _134
REMARK   53  A    between atoms: _134  and  _135
REMARK   54  A    between atoms: _140  and  _141
REMARK   55  A    between atoms: _143  and  _145
REMARK   56  A    between atoms: _145  and  _146
REMARK   57  A    between atoms: _145  and  _148
REMARK   58  A    between atoms: _148  and  _149
REMARK   59  A    between atoms: _154  and  _155
REMARK   60  A    between atoms: _157  and  _159
REMARK   61  A    between atoms: _159  and  _160
REMARK   62  A    between atoms: _159  and  _162
REMARK   63  A    between atoms: _165  and  _167
REMARK   64  A    between atoms: _167  and  _168
REMARK   65  A    between atoms: _167  and  _170
REMARK   66  A    between atoms: _170  and  _171
REMARK   67  A    between atoms: _177  and  _178
REMARK   68  A    between atoms: _183  and  _185
REMARK   69  A    between atoms: _185  and  _186
REMARK   70  A    between atoms: _185  and  _188
REMARK   71  A    between atoms: _188  and  _189
REMARK   72  A    between atoms: _191  and  _193
REMARK   73  A    between atoms: _193  and  _194
REMARK   74  A    between atoms: _193  and  _196
REMARK   75  A    between atoms: _196  and  _197
REMARK   76  A    between atoms: _197  and  _198
REMARK   77  A    between atoms: _201  and  _203
REMARK   78  A    between atoms: _203  and  _204
REMARK   79  A    between atoms: _203  and  _206
REMARK   80  A    between atoms: _206  and  _207
REMARK   81  A    between atoms: _212  and  _213
REMARK   82  A    between atoms: _215  and  _217
REMARK   83  A    between atoms: _217  and  _218
REMARK   84  A    between atoms: _217  and  _220
REMARK   85  A    between atoms: _220  and  _221
REMARK   86  A    between atoms: _226  and  _228
REMARK   87  A    between atoms: _228  and  _229
REMARK   88  A    between atoms: _228  and  _231
REMARK   89  A    between atoms: _231  and  _232
REMARK   90  A    between atoms: _237  and  _239
REMARK   91  A    between atoms: _239  and  _240
REMARK   92  A    between atoms: _239  and  _242
REMARK   93  A    between atoms: _242  and  _243
REMARK   94  A    between atoms: _243  and  _244
REMARK   95  A    between atoms: _246  and  _248
REMARK   96  A    between atoms: _248  and  _249
REMARK   97  A    between atoms: _248  and  _251
REMARK   98  A    between atoms: _251  and  _252
REMARK   99  A    between atoms: _257  and  _258
REMARK  100  A    between atoms: _260  and  _262
REMARK  101  A    between atoms: _262  and  _263
REMARK  102  A    between atoms: _262  and  _265
REMARK  103  A    between atoms: _265  and  _266
REMARK  104  A    between atoms: _269  and  _271
REMARK  105  A    between atoms: _271  and  _272
REMARK  106  A    between atoms: _271  and  _274
REMARK  107  A    between atoms: _274  and  _275
REMARK  108  A    between atoms: _275  and  _496
REMARK  109  A    between atoms: _276  and  _278
REMARK  110  A    between atoms: _278  and  _279
REMARK  111  A    between atoms: _278  and  _281
REMARK  112  A    between atoms: _281  and  _282
REMARK  113  A    between atoms: _285  and  _287
REMARK  114  A    between atoms: _287  and  _288
REMARK  115  A    between atoms: _287  and  _290
REMARK  116  A    between atoms: _290  and  _291
REMARK  117  A    between atoms: _296  and  _297
REMARK  118  A    between atoms: _299  and  _301
REMARK  119  A    between atoms: _301  and  _302
REMARK  120  A    between atoms: _301  and  _304
REMARK  121  A    between atoms: _304  and  _305
REMARK  122  A    between atoms: _310  and  _311
REMARK  123  A    between atoms: _313  and  _315
REMARK  124  A    between atoms: _315  and  _316
REMARK  125  A    between atoms: _315  and  _318
REMARK  126  A    between atoms: _318  and  _319
REMARK  127  A    between atoms: _319  and  _320
REMARK  128  A    between atoms: _323  and  _325
REMARK  129  A    between atoms: _325  and  _326
REMARK  130  A    between atoms: _325  and  _328
REMARK  131  A    between atoms: _328  and  _329
REMARK  132  A    between atoms: _329  and  _330
REMARK  133  A    between atoms: _330  and  _331
REMARK  134  A    between atoms: _331  and  _332
REMARK  135  A    between atoms: _336  and  _338
REMARK  136  A    between atoms: _338  and  _339
REMARK  137  A    between atoms: _338  and  _341
REMARK  138  A    between atoms: _341  and  _342
REMARK  139  A    between atoms: _347  and  _348
REMARK  140  A    between atoms: _350  and  _352
REMARK  141  A    between atoms: _352  and  _353
REMARK  142  A    between atoms: _352  and  _355
REMARK  143  A    between atoms: _355  and  _356
REMARK  144  A    between atoms: _361  and  _363
REMARK  145  A    between atoms: _363  and  _364
REMARK  146  A    between atoms: _363  and  _366
REMARK  147  A    between atoms: _366  and  _367
REMARK  148  A    between atoms: _370  and  _372
REMARK  149  A    between atoms: _372  and  _373
REMARK  150  A    between atoms: _372  and  _375
REMARK  151  A    between atoms: _375  and  _376
REMARK  152  A    between atoms: _381  and  _383
REMARK  153  A    between atoms: _383  and  _384
REMARK  154  A    between atoms: _383  and  _386
REMARK  155  A    between atoms: _386  and  _387
REMARK  156  A    between atoms: _397  and  _399
REMARK  157  A    between atoms: _399  and  _400
REMARK  158  A    between atoms: _399  and  _402
REMARK  159  A    between atoms: _402  and  _403
REMARK  160  A    between atoms: _409  and  _411
REMARK  161  A    between atoms: _411  and  _412
REMARK  162  A    between atoms: _411  and  _414
REMARK  163  A    between atoms: _414  and  _415
REMARK  164  A    between atoms: _418  and  _420
REMARK  165  A    between atoms: _420  and  _421
REMARK  166  A    between atoms: _420  and  _423
REMARK  167  A    between atoms: _423  and  _424
REMARK  168  A    between atoms: _424  and  _425
REMARK  169  A    between atoms: _425  and  _426
REMARK  170  A    between atoms: _435  and  _437
REMARK  171  A    between atoms: _437  and  _438
REMARK  172  A    between atoms: _437  and  _440
REMARK  173  A    between atoms: _440  and  _441
REMARK  174  A    between atoms: _446  and  _448
REMARK  175  A    between atoms: _448  and  _449
REMARK  176  A    between atoms: _448  and  _451
REMARK  177  A    between atoms: _451  and  _452
REMARK  178  A    between atoms: _452  and  _453
REMARK  179  A    between atoms: _453  and  _454
REMARK  180  A    between atoms: _463  and  _465
REMARK  181  A    between atoms: _465  and  _466
REMARK  182  A    between atoms: _469  and  _471
REMARK  183  A    between atoms: _471  and  _472
REMARK  184  A    between atoms: _474  and  _476
REMARK  185  A    between atoms: _476  and  _477
REMARK  186  A    between atoms: _476  and  _479
REMARK  187  A    between atoms: _479  and  _480
REMARK  188  A    between atoms: _490  and  _492
REMARK  189  A    between atoms: _492  and  _493
REMARK  190  A    between atoms: _492  and  _495
REMARK  191  A    between atoms: _495  and  _496
REMARK  192  A    between atoms: _497  and  _499
REMARK  193  A    between atoms: _499  and  _500
REMARK  194  A    between atoms: _503  and  _505
REMARK  195  A    between atoms: _505  and  _506
REMARK  196  A    between atoms: _505  and  _508
REMARK  197  A    between atoms: _508  and  _509
REMARK  198  A    between atoms: _512  and  _514
REMARK  199  A    between atoms: _514  and  _515
REMARK  200  A    between atoms: _514  and  _517
REMARK  201  A    between atoms: _517  and  _518
REMARK  202  A    between atoms: _523  and  _524
REMARK  203  A    between atoms: _526  and  _528
REMARK  204  A    between atoms: _528  and  _529
REMARK  205  A    between atoms: _528  and  _531
REMARK  206  A    between atoms: _531  and  _532
REMARK  207  A    between atoms: _534  and  _536
REMARK  208  A    between atoms: _536  and  _537
REMARK  209  A    between atoms: _536  and  _539
REMARK  210  A    between atoms: _539  and  _540
REMARK  211  A    between atoms: _546  and  _548
REMARK  212  A    between atoms: _548  and  _549
REMARK  213  A    between atoms: _548  and  _551
REMARK  214  A    between atoms: _551  and  _552
REMARK  215  A    between atoms: _555  and  _557
REMARK  216  A    between atoms: _557  and  _558
REMARK  217  A    between atoms: _557  and  _560
REMARK  218  A    between atoms: _560  and  _561
REMARK  219  A    between atoms: _563  and  _565
REMARK  220  A    between atoms: _565  and  _566
REMARK  221  A    between atoms: _565  and  _568
REMARK  222  A    between atoms: _568  and  _569
REMARK  223  A    between atoms: _574  and  _576
REMARK  224  A    between atoms: _576  and  _577
REMARK  225  A    between atoms: _576  and  _579
REMARK  226  A    between atoms: _579  and  _580
REMARK  227  A    between atoms: _585  and  _587
REMARK  228  A    between atoms: _587  and  _588
REMARK  229  A    between atoms: _587  and  _590
REMARK  230  A    between atoms: _590  and  _591
REMARK  231  A    between atoms: _594  and  _596
REMARK  232  A    between atoms: _596  and  _597
REMARK  233  A    between atoms: _600  and  _602
REMARK  234  A    between atoms: _602  and  _603
REMARK  235  A    between atoms: _602  and  _605
REMARK  236  A    between atoms: _605  and  _606
REMARK  237  A    between atoms: _611  and  _612
REMARK  238  A    between atoms: _614  and  _616
REMARK  239  A    between atoms: _616  and  _617
REMARK  240  A    between atoms: _616  and  _619
REMARK  241  A    between atoms: _619  and  _620
REMARK  242  A    between atoms: _625  and  _626
REMARK  243  A    between atoms: _628  and  _630
REMARK  244  A    between atoms: _630  and  _631
REMARK  245  A    between atoms: _630  and  _633
REMARK  246  A    between atoms: _636  and  _638
REMARK  247  A    between atoms: _638  and  _639
REMARK  248  A    between atoms: _638  and  _641
REMARK  249  A    between atoms: _641  and  _642
REMARK  250  A    between atoms: _647  and  _649
REMARK  251  A    between atoms: _649  and  _650
REMARK  252  A    between atoms: _653  and  _655
REMARK  253  A    between atoms: _655  and  _656
REMARK  254  A    between atoms: _655  and  _658
REMARK  255  A    between atoms: _658  and  _659
REMARK  256  A    between atoms: _659  and  _660
REMARK  257  A    between atoms: _660  and  _661
REMARK  258  A    between atoms: _670  and  _672
REMARK  259  A    between atoms: _672  and  _673
REMARK  260  A    between atoms: _672  and  _675
REMARK  261  A    between atoms: _675  and  _676
REMARK  262  A    between atoms: _679  and  _681
REMARK  263  A    between atoms: _681  and  _682
REMARK  264  A    between atoms: _681  and  _684
REMARK  265  A    between atoms: _684  and  _685
REMARK  266  A    between atoms: _688  and  _690
REMARK  267  A    between atoms: _690  and  _691
REMARK  268  A    between atoms: _690  and  _693
REMARK  269  A    between atoms: _693  and  _694
REMARK                            x       y       z     vdW  Elec       q    Type
REMARK                         _______ _______ _______ _____ _____    ______ ____
ROOT
ATOM      1  O   HOH     1      -8.366  13.200  16.373  0.00  0.00    +0.000 OA
ENDROOT
TORSDOF 0
REMARK  Name = ../refined-set-2016/1b3f/1b3f_pocket.pdb
REMARK  269 active torsions:
REMARK  status: ('A' for Active; 'I' for Inactive)
REMARK    1  A    between atoms: _1  and  _3
REMARK    2  A    between atoms: _3  and  _4
REMARK    3  A    between atoms: _3  and  _6
REMARK    4  A    between atoms: _6  and  _7
REMARK    5  A    between atoms: _12  and  _14
REMARK    6  A    between atoms: _14  and  _15
REMARK    7  A    between atoms: _17  and  _19
REMARK    8  A    between atoms: _19  and  _20
REMARK    9  A    between atoms: _19  and  _22
REMARK   10  A    between atoms: _22  and  _23
REMARK   11  A    between atoms: _25  and  _27
REMARK   12  A    between atoms: _27  and  _28
REMARK   13  A    between atoms: _27  and  _30
REMARK   14  A    between atoms: _30  and  _31
REMARK   15  A    between atoms: _31  and  _32
REMARK   16  A    between atoms: _37  and  _39
REMARK   17  A    between atoms: _39  and  _40
REMARK   18  A    between atoms: _39  and  _42
REMARK   19  A    between atoms: _42  and  _43
REMARK   20  A    between atoms: _46  and  _48
REMARK   21  A    between atoms: _48  and  _49
REMARK   22  A    between atoms: _48  and  _51
REMARK   23  A    between atoms: _52  and  _53
REMARK   24  A    between atoms: _56  and  _58
REMARK   25  A    between atoms: _58  and  _59
REMARK   26  A    between atoms: _61  and  _63
REMARK   27  A    between atoms: _63  and  _64
REMARK   28  A    between atoms: _63  and  _66
REMARK   29  A    between atoms: _70  and  _71
REMARK   30  A    between atoms: _76  and  _78
REMARK   31  A    between atoms: _78  and  _79
REMARK   32  A    between atoms: _78  and  _81
REMARK   33  A    between atoms: _81  and  _82
REMARK   34  A    between atoms: _82  and  _83
REMARK   35  A    between atoms: _86  and  _88
REMARK   36  A    between atoms: _88  and  _89
REMARK   37  A    between atoms: _88  and  _91
REMARK   38  A    between atoms: _91  and  _92
REMARK   39  A    between atoms: _94  and  _96
REMARK   40  A    between atoms: _96  and  _97
REMARK   41  A    between atoms: _96  and  _99
REMARK   42  A    between atoms: _99  and  _100
REMARK   43  A    between atoms: _105  and  _107
REMARK   44  A    between atoms: _107  and  _108
REMARK   45  A    between atoms: _107  and  _110
REMARK   46  A    between atoms: _110  and  _111
REMARK   47  A    between atoms: _111  and  _112
REMARK   48  A    between atoms: _112  and  _113
REMARK   49  A    between atoms: _123  and  _124
REMARK   50  A    between atoms: _129  and  _131
REMARK   51  A    between atoms: _131  and  _132
REMARK   52  A    between atoms: _131  and  _134
REMARK   53  A    between atoms: _134  and  _135
REMARK   54  A    between atoms: _140  and  _141
REMARK   55  A    between atoms: _143  and  _145
REMARK   56  A    between atoms: _145  and  _146
REMARK   57  A    between atoms: _145  and  _148
REMARK   58  A    between atoms: _148  and  _149
REMARK   59  A    between atoms: _154  and  _155
REMARK   60  A    between atoms: _157  and  _159
REMARK   61  A    between atoms: _159  and  _160
REMARK   62  A    between atoms: _159  and  _162
REMARK   63  A    between atoms: _165  and  _167
REMARK   64  A    between atoms: _167  and  _168
REMARK   65  A    between atoms: _167  and  _170
REMARK   66  A    between atoms: _170  and  _171
REMARK   67  A    between atoms: _177  and  _178
REMARK   68  A    between atoms: _183  and  _185
REMARK   69  A    between atoms: _185  and  _186
REMARK   70  A    between atoms: _185  and  _188
REMARK   71  A    between atoms: _188  and  _189
REMARK   72  A    between atoms: _191  and  _193
REMARK   73  A    between atoms: _193  and  _194
REMARK   74  A    between atoms: _193  and  _196
REMARK   75  A    between atoms: _196  and  _197
REMARK   76  A    between atoms: _197  and  _198
REMARK   77  A    between atoms: _201  and  _203
REMARK   78  A    between atoms: _203  and  _204
REMARK   79  A    between atoms: _203  and  _206
REMARK   80  A    between atoms: _206  and  _207
REMARK   81  A    between atoms: _212  and  _213
REMARK   82  A    between atoms: _215  and  _217
REMARK   83  A    between atoms: _217  and  _218
REMARK   84  A    between atoms: _217  and  _220
REMARK   85  A    between atoms: _220  and  _221
REMARK   86  A    between atoms: _226  and  _228
REMARK   87  A    between atoms: _228  and  _229
REMARK   88  A    between atoms: _228  and  _231
REMARK   89  A    between atoms: _231  and  _232
REMARK   90  A    between atoms: _237  and  _239
REMARK   91  A    between atoms: _239  and  _240
REMARK   92  A    between atoms: _239  and  _242
REMARK   93  A    between atoms: _242  and  _243
REMARK   94  A    between atoms: _243  and  _244
REMARK   95  A    between atoms: _246  and  _248
REMARK   96  A    between atoms: _248  and  _249
REMARK   97  A    between atoms: _248  and  _251
REMARK   98  A    between atoms: _251  and  _252
REMARK   99  A    between atoms: _257  and  _258
REMARK  100  A    between atoms: _260  and  _262
REMARK  101  A    between atoms: _262  and  _263
REMARK  102  A    between atoms: _262  and  _265
REMARK  103  A    between atoms: _265  and  _266
REMARK  104  A    between atoms: _269  and  _271
REMARK  105  A    between atoms: _271  and  _272
REMARK  106  A    between atoms: _271  and  _274
REMARK  107  A    between atoms: _274  and  _275
REMARK  108  A    between atoms: _275  and  _496
REMARK  109  A    between atoms: _276  and  _278
REMARK  110  A    between atoms: _278  and  _279
REMARK  111  A    between atoms: _278  and  _281
REMARK  112  A    between atoms: _281  and  _282
REMARK  113  A    between atoms: _285  and  _287
REMARK  114  A    between atoms: _287  and  _288
REMARK  115  A    between atoms: _287  and  _290
REMARK  116  A    between atoms: _290  and  _291
REMARK  117  A    between atoms: _296  and  _297
REMARK  118  A    between atoms: _299  and  _301
REMARK  119  A    between atoms: _301  and  _302
REMARK  120  A    between atoms: _301  and  _304
REMARK  121  A    between atoms: _304  and  _305
REMARK  122  A    between atoms: _310  and  _311
REMARK  123  A    between atoms: _313  and  _315
REMARK  124  A    between atoms: _315  and  _316
REMARK  125  A    between atoms: _315  and  _318
REMARK  126  A    between atoms: _318  and  _319
REMARK  127  A    between atoms: _319  and  _320
REMARK  128  A    between atoms: _323  and  _325
REMARK  129  A    between atoms: _325  and  _326
REMARK  130  A    between atoms: _325  and  _328
REMARK  131  A    between atoms: _328  and  _329
REMARK  132  A    between atoms: _329  and  _330
REMARK  133  A    between atoms: _330  and  _331
REMARK  134  A    between atoms: _331  and  _332
REMARK  135  A    between atoms: _336  and  _338
REMARK  136  A    between atoms: _338  and  _339
REMARK  137  A    between atoms: _338  and  _341
REMARK  138  A    between atoms: _341  and  _342
REMARK  139  A    between atoms: _347  and  _348
REMARK  140  A    between atoms: _350  and  _352
REMARK  141  A    between atoms: _352  and  _353
REMARK  142  A    between atoms: _352  and  _355
REMARK  143  A    between atoms: _355  and  _356
REMARK  144  A    between atoms: _361  and  _363
REMARK  145  A    between atoms: _363  and  _364
REMARK  146  A    between atoms: _363  and  _366
REMARK  147  A    between atoms: _366  and  _367
REMARK  148  A    between atoms: _370  and  _372
REMARK  149  A    between atoms: _372  and  _373
REMARK  150  A    between atoms: _372  and  _375
REMARK  151  A    between atoms: _375  and  _376
REMARK  152  A    between atoms: _381  and  _383
REMARK  153  A    between atoms: _383  and  _384
REMARK  154  A    between atoms: _383  and  _386
REMARK  155  A    between atoms: _386  and  _387
REMARK  156  A    between atoms: _397  and  _399
REMARK  157  A    between atoms: _399  and  _400
REMARK  158  A    between atoms: _399  and  _402
REMARK  159  A    between atoms: _402  and  _403
REMARK  160  A    between atoms: _409  and  _411
REMARK  161  A    between atoms: _411  and  _412
REMARK  162  A    between atoms: _411  and  _414
REMARK  163  A    between atoms: _414  and  _415
REMARK  164  A    between atoms: _418  and  _420
REMARK  165  A    between atoms: _420  and  _421
REMARK  166  A    between atoms: _420  and  _423
REMARK  167  A    between atoms: _423  and  _424
REMARK  168  A    between atoms: _424  and  _425
REMARK  169  A    between atoms: _425  and  _426
REMARK  170  A    between atoms: _435  and  _437
REMARK  171  A    between atoms: _437  and  _438
REMARK  172  A    between atoms: _437  and  _440
REMARK  173  A    between atoms: _440  and  _441
REMARK  174  A    between atoms: _446  and  _448
REMARK  175  A    between atoms: _448  and  _449
REMARK  176  A    between atoms: _448  and  _451
REMARK  177  A    between atoms: _451  and  _452
REMARK  178  A    between atoms: _452  and  _453
REMARK  179  A    between atoms: _453  and  _454
REMARK  180  A    between atoms: _463  and  _465
REMARK  181  A    between atoms: _465  and  _466
REMARK  182  A    between atoms: _469  and  _471
REMARK  183  A    between atoms: _471  and  _472
REMARK  184  A    between atoms: _474  and  _476
REMARK  185  A    between atoms: _476  and  _477
REMARK  186  A    between atoms: _476  and  _479
REMARK  187  A    between atoms: _479  and  _480
REMARK  188  A    between atoms: _490  and  _492
REMARK  189  A    between atoms: _492  and  _493
REMARK  190  A    between atoms: _492  and  _495
REMARK  191  A    between atoms: _495  and  _496
REMARK  192  A    between atoms: _497  and  _499
REMARK  193  A    between atoms: _499  and  _500
REMARK  194  A    between atoms: _503  and  _505
REMARK  195  A    between atoms: _505  and  _506
REMARK  196  A    between atoms: _505  and  _508
REMARK  197  A    between atoms: _508  and  _509
REMARK  198  A    between atoms: _512  and  _514
REMARK  199  A    between atoms: _514  and  _515
REMARK  200  A    between atoms: _514  and  _517
REMARK  201  A    between atoms: _517  and  _518
REMARK  202  A    between atoms: _523  and  _524
REMARK  203  A    between atoms: _526  and  _528
REMARK  204  A    between atoms: _528  and  _529
REMARK  205  A    between atoms: _528  and  _531
REMARK  206  A    between atoms: _531  and  _532
REMARK  207  A    between atoms: _534  and  _536
REMARK  208  A    between atoms: _536  and  _537
REMARK  209  A    between atoms: _536  and  _539
REMARK  210  A    between atoms: _539  and  _540
REMARK  211  A    between atoms: _546  and  _548
REMARK  212  A    between atoms: _548  and  _549
REMARK  213  A    between atoms: _548  and  _551
REMARK  214  A    between atoms: _551  and  _552
REMARK  215  A    between atoms: _555  and  _557
REMARK  216  A    between atoms: _557  and  _558
REMARK  217  A    between atoms: _557  and  _560
REMARK  218  A    between atoms: _560  and  _561
REMARK  219  A    between atoms: _563  and  _565
REMARK  220  A    between atoms: _565  and  _566
REMARK  221  A    between atoms: _565  and  _568
REMARK  222  A    between atoms: _568  and  _569
REMARK  223  A    between atoms: _574  and  _576
REMARK  224  A    between atoms: _576  and  _577
REMARK  225  A    between atoms: _576  and  _579
REMARK  226  A    between atoms: _579  and  _580
REMARK  227  A    between atoms: _585  and  _587
REMARK  228  A    between atoms: _587  and  _588
REMARK  229  A    between atoms: _587  and  _590
REMARK  230  A    between atoms: _590  and  _591
REMARK  231  A    between atoms: _594  and  _596
REMARK  232  A    between atoms: _596  and  _597
REMARK  233  A    between atoms: _600  and  _602
REMARK  234  A    between atoms: _602  and  _603
REMARK  235  A    between atoms: _602  and  _605
REMARK  236  A    between atoms: _605  and  _606
REMARK  237  A    between atoms: _611  and  _612
REMARK  238  A    between atoms: _614  and  _616
REMARK  239  A    between atoms: _616  and  _617
REMARK  240  A    between atoms: _616  and  _619
REMARK  241  A    between atoms: _619  and  _620
REMARK  242  A    between atoms: _625  and  _626
REMARK  243  A    between atoms: _628  and  _630
REMARK  244  A    between atoms: _630  and  _631
REMARK  245  A    between atoms: _630  and  _633
REMARK  246  A    between atoms: _636  and  _638
REMARK  247  A    between atoms: _638  and  _639
REMARK  248  A    between atoms: _638  and  _641
REMARK  249  A    between atoms: _641  and  _642
REMARK  250  A    between atoms: _647  and  _649
REMARK  251  A    between atoms: _649  and  _650
REMARK  252  A    between atoms: _653  and  _655
REMARK  253  A    between atoms: _655  and  _656
REMARK  254  A    between atoms: _655  and  _658
REMARK  255  A    between atoms: _658  and  _659
REMARK  256  A    between atoms: _659  and  _660
REMARK  257  A    between atoms: _660  and  _661
REMARK  258  A    between atoms: _670  and  _672
REMARK  259  A    between atoms: _672  and  _673
REMARK  260  A    between atoms: _672  and  _675
REMARK  261  A    between atoms: _675  and  _676
REMARK  262  A    between atoms: _679  and  _681
REMARK  263  A    between atoms: _681  and  _682
REMARK  264  A    between atoms: _681  and  _684
REMARK  265  A    between atoms: _684  and  _685
REMARK  266  A    between atoms: _688  and  _690
REMARK  267  A    between atoms: _690  and  _691
REMARK  268  A    between atoms: _690  and  _693
REMARK  269  A    between atoms: _693  and  _694
REMARK                            x       y       z     vdW  Elec       q    Type
REMARK                         _______ _______ _______ _____ _____    ______ ____
ROOT
ATOM      1  O   HOH     1       6.020   7.957   7.625  0.00  0.00    +0.000 OA
ENDROOT
TORSDOF 0
REMARK  Name = ../refined-set-2016/1b3f/1b3f_pocket.pdb
REMARK  269 active torsions:
REMARK  status: ('A' for Active; 'I' for Inactive)
REMARK    1  A    between atoms: _1  and  _3
REMARK    2  A    between atoms: _3  and  _4
REMARK    3  A    between atoms: _3  and  _6
REMARK    4  A    between atoms: _6  and  _7
REMARK    5  A    between atoms: _12  and  _14
REMARK    6  A    between atoms: _14  and  _15
REMARK    7  A    between atoms: _17  and  _19
REMARK    8  A    between atoms: _19  and  _20
REMARK    9  A    between atoms: _19  and  _22
REMARK   10  A    between atoms: _22  and  _23
REMARK   11  A    between atoms: _25  and  _27
REMARK   12  A    between atoms: _27  and  _28
REMARK   13  A    between atoms: _27  and  _30
REMARK   14  A    between atoms: _30  and  _31
REMARK   15  A    between atoms: _31  and  _32
REMARK   16  A    between atoms: _37  and  _39
REMARK   17  A    between atoms: _39  and  _40
REMARK   18  A    between atoms: _39  and  _42
REMARK   19  A    between atoms: _42  and  _43
REMARK   20  A    between atoms: _46  and  _48
REMARK   21  A    between atoms: _48  and  _49
REMARK   22  A    between atoms: _48  and  _51
REMARK   23  A    between atoms: _52  and  _53
REMARK   24  A    between atoms: _56  and  _58
REMARK   25  A    between atoms: _58  and  _59
REMARK   26  A    between atoms: _61  and  _63
REMARK   27  A    between atoms: _63  and  _64
REMARK   28  A    between atoms: _63  and  _66
REMARK   29  A    between atoms: _70  and  _71
REMARK   30  A    between atoms: _76  and  _78
REMARK   31  A    between atoms: _78  and  _79
REMARK   32  A    between atoms: _78  and  _81
REMARK   33  A    between atoms: _81  and  _82
REMARK   34  A    between atoms: _82  and  _83
REMARK   35  A    between atoms: _86  and  _88
REMARK   36  A    between atoms: _88  and  _89
REMARK   37  A    between atoms: _88  and  _91
REMARK   38  A    between atoms: _91  and  _92
REMARK   39  A    between atoms: _94  and  _96
REMARK   40  A    between atoms: _96  and  _97
REMARK   41  A    between atoms: _96  and  _99
REMARK   42  A    between atoms: _99  and  _100
REMARK   43  A    between atoms: _105  and  _107
REMARK   44  A    between atoms: _107  and  _108
REMARK   45  A    between atoms: _107  and  _110
REMARK   46  A    between atoms: _110  and  _111
REMARK   47  A    between atoms: _111  and  _112
REMARK   48  A    between atoms: _112  and  _113
REMARK   49  A    between atoms: _123  and  _124
REMARK   50  A    between atoms: _129  and  _131
REMARK   51  A    between atoms: _131  and  _132
REMARK   52  A    between atoms: _131  and  _134
REMARK   53  A    between atoms: _134  and  _135
REMARK   54  A    between atoms: _140  and  _141
REMARK   55  A    between atoms: _143  and  _145
REMARK   56  A    between atoms: _145  and  _146
REMARK   57  A    between atoms: _145  and  _148
REMARK   58  A    between atoms: _148  and  _149
REMARK   59  A    between atoms: _154  and  _155
REMARK   60  A    between atoms: _157  and  _159
REMARK   61  A    between atoms: _159  and  _160
REMARK   62  A    between atoms: _159  and  _162
REMARK   63  A    between atoms: _165  and  _167
REMARK   64  A    between atoms: _167  and  _168
REMARK   65  A    between atoms: _167  and  _170
REMARK   66  A    between atoms: _170  and  _171
REMARK   67  A    between atoms: _177  and  _178
REMARK   68  A    between atoms: _183  and  _185
REMARK   69  A    between atoms: _185  and  _186
REMARK   70  A    between atoms: _185  and  _188
REMARK   71  A    between atoms: _188  and  _189
REMARK   72  A    between atoms: _191  and  _193
REMARK   73  A    between atoms: _193  and  _194
REMARK   74  A    between atoms: _193  and  _196
REMARK   75  A    between atoms: _196  and  _197
REMARK   76  A    between atoms: _197  and  _198
REMARK   77  A    between atoms: _201  and  _203
REMARK   78  A    between atoms: _203  and  _204
REMARK   79  A    between atoms: _203  and  _206
REMARK   80  A    between atoms: _206  and  _207
REMARK   81  A    between atoms: _212  and  _213
REMARK   82  A    between atoms: _215  and  _217
REMARK   83  A    between atoms: _217  and  _218
REMARK   84  A    between atoms: _217  and  _220
REMARK   85  A    between atoms: _220  and  _221
REMARK   86  A    between atoms: _226  and  _228
REMARK   87  A    between atoms: _228  and  _229
REMARK   88  A    between atoms: _228  and  _231
REMARK   89  A    between atoms: _231  and  _232
REMARK   90  A    between atoms: _237  and  _239
REMARK   91  A    between atoms: _239  and  _240
REMARK   92  A    between atoms: _239  and  _242
REMARK   93  A    between atoms: _242  and  _243
REMARK   94  A    between atoms: _243  and  _244
REMARK   95  A    between atoms: _246  and  _248
REMARK   96  A    between atoms: _248  and  _249
REMARK   97  A    between atoms: _248  and  _251
REMARK   98  A    between atoms: _251  and  _252
REMARK   99  A    between atoms: _257  and  _258
REMARK  100  A    between atoms: _260  and  _262
REMARK  101  A    between atoms: _262  and  _263
REMARK  102  A    between atoms: _262  and  _265
REMARK  103  A    between atoms: _265  and  _266
REMARK  104  A    between atoms: _269  and  _271
REMARK  105  A    between atoms: _271  and  _272
REMARK  106  A    between atoms: _271  and  _274
REMARK  107  A    between atoms: _274  and  _275
REMARK  108  A    between atoms: _275  and  _496
REMARK  109  A    between atoms: _276  and  _278
REMARK  110  A    between atoms: _278  and  _279
REMARK  111  A    between atoms: _278  and  _281
REMARK  112  A    between atoms: _281  and  _282
REMARK  113  A    between atoms: _285  and  _287
REMARK  114  A    between atoms: _287  and  _288
REMARK  115  A    between atoms: _287  and  _290
REMARK  116  A    between atoms: _290  and  _291
REMARK  117  A    between atoms: _296  and  _297
REMARK  118  A    between atoms: _299  and  _301
REMARK  119  A    between atoms: _301  and  _302
REMARK  120  A    between atoms: _301  and  _304
REMARK  121  A    between atoms: _304  and  _305
REMARK  122  A    between atoms: _310  and  _311
REMARK  123  A    between atoms: _313  and  _315
REMARK  124  A    between atoms: _315  and  _316
REMARK  125  A    between atoms: _315  and  _318
REMARK  126  A    between atoms: _318  and  _319
REMARK  127  A    between atoms: _319  and  _320
REMARK  128  A    between atoms: _323  and  _325
REMARK  129  A    between atoms: _325  and  _326
REMARK  130  A    between atoms: _325  and  _328
REMARK  131  A    between atoms: _328  and  _329
REMARK  132  A    between atoms: _329  and  _330
REMARK  133  A    between atoms: _330  and  _331
REMARK  134  A    between atoms: _331  and  _332
REMARK  135  A    between atoms: _336  and  _338
REMARK  136  A    between atoms: _338  and  _339
REMARK  137  A    between atoms: _338  and  _341
REMARK  138  A    between atoms: _341  and  _342
REMARK  139  A    between atoms: _347  and  _348
REMARK  140  A    between atoms: _350  and  _352
REMARK  141  A    between atoms: _352  and  _353
REMARK  142  A    between atoms: _352  and  _355
REMARK  143  A    between atoms: _355  and  _356
REMARK  144  A    between atoms: _361  and  _363
REMARK  145  A    between atoms: _363  and  _364
REMARK  146  A    between atoms: _363  and  _366
REMARK  147  A    between atoms: _366  and  _367
REMARK  148  A    between atoms: _370  and  _372
REMARK  149  A    between atoms: _372  and  _373
REMARK  150  A    between atoms: _372  and  _375
REMARK  151  A    between atoms: _375  and  _376
REMARK  152  A    between atoms: _381  and  _383
REMARK  153  A    between atoms: _383  and  _384
REMARK  154  A    between atoms: _383  and  _386
REMARK  155  A    between atoms: _386  and  _387
REMARK  156  A    between atoms: _397  and  _399
REMARK  157  A    between atoms: _399  and  _400
REMARK  158  A    between atoms: _399  and  _402
REMARK  159  A    between atoms: _402  and  _403
REMARK  160  A    between atoms: _409  and  _411
REMARK  161  A    between atoms: _411  and  _412
REMARK  162  A    between atoms: _411  and  _414
REMARK  163  A    between atoms: _414  and  _415
REMARK  164  A    between atoms: _418  and  _420
REMARK  165  A    between atoms: _420  and  _421
REMARK  166  A    between atoms: _420  and  _423
REMARK  167  A    between atoms: _423  and  _424
REMARK  168  A    between atoms: _424  and  _425
REMARK  169  A    between atoms: _425  and  _426
REMARK  170  A    between atoms: _435  and  _437
REMARK  171  A    between atoms: _437  and  _438
REMARK  172  A    between atoms: _437  and  _440
REMARK  173  A    between atoms: _440  and  _441
REMARK  174  A    between atoms: _446  and  _448
REMARK  175  A    between atoms: _448  and  _449
REMARK  176  A    between atoms: _448  and  _451
REMARK  177  A    between atoms: _451  and  _452
REMARK  178  A    between atoms: _452  and  _453
REMARK  179  A    between atoms: _453  and  _454
REMARK  180  A    between atoms: _463  and  _465
REMARK  181  A    between atoms: _465  and  _466
REMARK  182  A    between atoms: _469  and  _471
REMARK  183  A    between atoms: _471  and  _472
REMARK  184  A    between atoms: _474  and  _476
REMARK  185  A    between atoms: _476  and  _477
REMARK  186  A    between atoms: _476  and  _479
REMARK  187  A    between atoms: _479  and  _480
REMARK  188  A    between atoms: _490  and  _492
REMARK  189  A    between atoms: _492  and  _493
REMARK  190  A    between atoms: _492  and  _495
REMARK  191  A    between atoms: _495  and  _496
REMARK  192  A    between atoms: _497  and  _499
REMARK  193  A    between atoms: _499  and  _500
REMARK  194  A    between atoms: _503  and  _505
REMARK  195  A    between atoms: _505  and  _506
REMARK  196  A    between atoms: _505  and  _508
REMARK  197  A    between atoms: _508  and  _509
REMARK  198  A    between atoms: _512  and  _514
REMARK  199  A    between atoms: _514  and  _515
REMARK  200  A    between atoms: _514  and  _517
REMARK  201  A    between atoms: _517  and  _518
REMARK  202  A    between atoms: _523  and  _524
REMARK  203  A    between atoms: _526  and  _528
REMARK  204  A    between atoms: _528  and  _529
REMARK  205  A    between atoms: _528  and  _531
REMARK  206  A    between atoms: _531  and  _532
REMARK  207  A    between atoms: _534  and  _536
REMARK  208  A    between atoms: _536  and  _537
REMARK  209  A    between atoms: _536  and  _539
REMARK  210  A    between atoms: _539  and  _540
REMARK  211  A    between atoms: _546  and  _548
REMARK  212  A    between atoms: _548  and  _549
REMARK  213  A    between atoms: _548  and  _551
REMARK  214  A    between atoms: _551  and  _552
REMARK  215  A    between atoms: _555  and  _557
REMARK  216  A    between atoms: _557  and  _558
REMARK  217  A    between atoms: _557  and  _560
REMARK  218  A    between atoms: _560  and  _561
REMARK  219  A    between atoms: _563  and  _565
REMARK  220  A    between atoms: _565  and  _566
REMARK  221  A    between atoms: _565  and  _568
REMARK  222  A    between atoms: _568  and  _569
REMARK  223  A    between atoms: _574  and  _576
REMARK  224  A    between atoms: _576  and  _577
REMARK  225  A    between atoms: _576  and  _579
REMARK  226  A    between atoms: _579  and  _580
REMARK  227  A    between atoms: _585  and  _587
REMARK  228  A    between atoms: _587  and  _588
REMARK  229  A    between atoms: _587  and  _590
REMARK  230  A    between atoms: _590  and  _591
REMARK  231  A    between atoms: _594  and  _596
REMARK  232  A    between atoms: _596  and  _597
REMARK  233  A    between atoms: _600  and  _602
REMARK  234  A    between atoms: _602  and  _603
REMARK  235  A    between atoms: _602  and  _605
REMARK  236  A    between atoms: _605  and  _606
REMARK  237  A    between atoms: _611  and  _612
REMARK  238  A    between atoms: _614  and  _616
REMARK  239  A    between atoms: _616  and  _617
REMARK  240  A    between atoms: _616  and  _619
REMARK  241  A    between atoms: _619  and  _620
REMARK  242  A    between atoms: _625  and  _626
REMARK  243  A    between atoms: _628  and  _630
REMARK  244  A    between atoms: _630  and  _631
REMARK  245  A    between atoms: _630  and  _633
REMARK  246  A    between atoms: _636  and  _638
REMARK  247  A    between atoms: _638  and  _639
REMARK  248  A    between atoms: _638  and  _641
REMARK  249  A    between atoms: _641  and  _642
REMARK  250  A    between atoms: _647  and  _649
REMARK  251  A    between atoms: _649  and  _650
REMARK  252  A    between atoms: _653  and  _655
REMARK  253  A    between atoms: _655  and  _656
REMARK  254  A    between atoms: _655  and  _658
REMARK  255  A    between atoms: _658  and  _659
REMARK  256  A    between atoms: _659  and  _660
REMARK  257  A    between atoms: _660  and  _661
REMARK  258  A    between atoms: _670  and  _672
REMARK  259  A    between atoms: _672  and  _673
REMARK  260  A    between atoms: _672  and  _675
REMARK  261  A    between atoms: _675  and  _676
REMARK  262  A    between atoms: _679  and  _681
REMARK  263  A    between atoms: _681  and  _682
REMARK  264  A    between atoms: _681  and  _684
REMARK  265  A    between atoms: _684  and  _685
REMARK  266  A    between atoms: _688  and  _690
REMARK  267  A    between atoms: _690  and  _691
REMARK  268  A    between atoms: _690  and  _693
REMARK  269  A    between atoms: _693  and  _694
REMARK                            x       y       z     vdW  Elec       q    Type
REMARK                         _______ _______ _______ _____ _____    ______ ____
ROOT
ATOM      1  O   HOH     1       4.493  13.666   9.356  0.00  0.00    +0.000 OA
ENDROOT
TORSDOF 0
REMARK  Name = ../refined-set-2016/1b3f/1b3f_pocket.pdb
REMARK  269 active torsions:
REMARK  status: ('A' for Active; 'I' for Inactive)
REMARK    1  A    between atoms: _1  and  _3
REMARK    2  A    between atoms: _3  and  _4
REMARK    3  A    between atoms: _3  and  _6
REMARK    4  A    between atoms: _6  and  _7
REMARK    5  A    between atoms: _12  and  _14
REMARK    6  A    between atoms: _14  and  _15
REMARK    7  A    between atoms: _17  and  _19
REMARK    8  A    between atoms: _19  and  _20
REMARK    9  A    between atoms: _19  and  _22
REMARK   10  A    between atoms: _22  and  _23
REMARK   11  A    between atoms: _25  and  _27
REMARK   12  A    between atoms: _27  and  _28
REMARK   13  A    between atoms: _27  and  _30
REMARK   14  A    between atoms: _30  and  _31
REMARK   15  A    between atoms: _31  and  _32
REMARK   16  A    between atoms: _37  and  _39
REMARK   17  A    between atoms: _39  and  _40
REMARK   18  A    between atoms: _39  and  _42
REMARK   19  A    between atoms: _42  and  _43
REMARK   20  A    between atoms: _46  and  _48
REMARK   21  A    between atoms: _48  and  _49
REMARK   22  A    between atoms: _48  and  _51
REMARK   23  A    between atoms: _52  and  _53
REMARK   24  A    between atoms: _56  and  _58
REMARK   25  A    between atoms: _58  and  _59
REMARK   26  A    between atoms: _61  and  _63
REMARK   27  A    between atoms: _63  and  _64
REMARK   28  A    between atoms: _63  and  _66
REMARK   29  A    between atoms: _70  and  _71
REMARK   30  A    between atoms: _76  and  _78
REMARK   31  A    between atoms: _78  and  _79
REMARK   32  A    between atoms: _78  and  _81
REMARK   33  A    between atoms: _81  and  _82
REMARK   34  A    between atoms: _82  and  _83
REMARK   35  A    between atoms: _86  and  _88
REMARK   36  A    between atoms: _88  and  _89
REMARK   37  A    between atoms: _88  and  _91
REMARK   38  A    between atoms: _91  and  _92
REMARK   39  A    between atoms: _94  and  _96
REMARK   40  A    between atoms: _96  and  _97
REMARK   41  A    between atoms: _96  and  _99
REMARK   42  A    between atoms: _99  and  _100
REMARK   43  A    between atoms: _105  and  _107
REMARK   44  A    between atoms: _107  and  _108
REMARK   45  A    between atoms: _107  and  _110
REMARK   46  A    between atoms: _110  and  _111
REMARK   47  A    between atoms: _111  and  _112
REMARK   48  A    between atoms: _112  and  _113
REMARK   49  A    between atoms: _123  and  _124
REMARK   50  A    between atoms: _129  and  _131
REMARK   51  A    between atoms: _131  and  _132
REMARK   52  A    between atoms: _131  and  _134
REMARK   53  A    between atoms: _134  and  _135
REMARK   54  A    between atoms: _140  and  _141
REMARK   55  A    between atoms: _143  and  _145
REMARK   56  A    between atoms: _145  and  _146
REMARK   57  A    between atoms: _145  and  _148
REMARK   58  A    between atoms: _148  and  _149
REMARK   59  A    between atoms: _154  and  _155
REMARK   60  A    between atoms: _157  and  _159
REMARK   61  A    between atoms: _159  and  _160
REMARK   62  A    between atoms: _159  and  _162
REMARK   63  A    between atoms: _165  and  _167
REMARK   64  A    between atoms: _167  and  _168
REMARK   65  A    between atoms: _167  and  _170
REMARK   66  A    between atoms: _170  and  _171
REMARK   67  A    between atoms: _177  and  _178
REMARK   68  A    between atoms: _183  and  _185
REMARK   69  A    between atoms: _185  and  _186
REMARK   70  A    between atoms: _185  and  _188
REMARK   71  A    between atoms: _188  and  _189
REMARK   72  A    between atoms: _191  and  _193
REMARK   73  A    between atoms: _193  and  _194
REMARK   74  A    between atoms: _193  and  _196
REMARK   75  A    between atoms: _196  and  _197
REMARK   76  A    between atoms: _197  and  _198
REMARK   77  A    between atoms: _201  and  _203
REMARK   78  A    between atoms: _203  and  _204
REMARK   79  A    between atoms: _203  and  _206
REMARK   80  A    between atoms: _206  and  _207
REMARK   81  A    between atoms: _212  and  _213
REMARK   82  A    between atoms: _215  and  _217
REMARK   83  A    between atoms: _217  and  _218
REMARK   84  A    between atoms: _217  and  _220
REMARK   85  A    between atoms: _220  and  _221
REMARK   86  A    between atoms: _226  and  _228
REMARK   87  A    between atoms: _228  and  _229
REMARK   88  A    between atoms: _228  and  _231
REMARK   89  A    between atoms: _231  and  _232
REMARK   90  A    between atoms: _237  and  _239
REMARK   91  A    between atoms: _239  and  _240
REMARK   92  A    between atoms: _239  and  _242
REMARK   93  A    between atoms: _242  and  _243
REMARK   94  A    between atoms: _243  and  _244
REMARK   95  A    between atoms: _246  and  _248
REMARK   96  A    between atoms: _248  and  _249
REMARK   97  A    between atoms: _248  and  _251
REMARK   98  A    between atoms: _251  and  _252
REMARK   99  A    between atoms: _257  and  _258
REMARK  100  A    between atoms: _260  and  _262
REMARK  101  A    between atoms: _262  and  _263
REMARK  102  A    between atoms: _262  and  _265
REMARK  103  A    between atoms: _265  and  _266
REMARK  104  A    between atoms: _269  and  _271
REMARK  105  A    between atoms: _271  and  _272
REMARK  106  A    between atoms: _271  and  _274
REMARK  107  A    between atoms: _274  and  _275
REMARK  108  A    between atoms: _275  and  _496
REMARK  109  A    between atoms: _276  and  _278
REMARK  110  A    between atoms: _278  and  _279
REMARK  111  A    between atoms: _278  and  _281
REMARK  112  A    between atoms: _281  and  _282
REMARK  113  A    between atoms: _285  and  _287
REMARK  114  A    between atoms: _287  and  _288
REMARK  115  A    between atoms: _287  and  _290
REMARK  116  A    between atoms: _290  and  _291
REMARK  117  A    between atoms: _296  and  _297
REMARK  118  A    between atoms: _299  and  _301
REMARK  119  A    between atoms: _301  and  _302
REMARK  120  A    between atoms: _301  and  _304
REMARK  121  A    between atoms: _304  and  _305
REMARK  122  A    between atoms: _310  and  _311
REMARK  123  A    between atoms: _313  and  _315
REMARK  124  A    between atoms: _315  and  _316
REMARK  125  A    between atoms: _315  and  _318
REMARK  126  A    between atoms: _318  and  _319
REMARK  127  A    between atoms: _319  and  _320
REMARK  128  A    between atoms: _323  and  _325
REMARK  129  A    between atoms: _325  and  _326
REMARK  130  A    between atoms: _325  and  _328
REMARK  131  A    between atoms: _328  and  _329
REMARK  132  A    between atoms: _329  and  _330
REMARK  133  A    between atoms: _330  and  _331
REMARK  134  A    between atoms: _331  and  _332
REMARK  135  A    between atoms: _336  and  _338
REMARK  136  A    between atoms: _338  and  _339
REMARK  137  A    between atoms: _338  and  _341
REMARK  138  A    between atoms: _341  and  _342
REMARK  139  A    between atoms: _347  and  _348
REMARK  140  A    between atoms: _350  and  _352
REMARK  141  A    between atoms: _352  and  _353
REMARK  142  A    between atoms: _352  and  _355
REMARK  143  A    between atoms: _355  and  _356
REMARK  144  A    between atoms: _361  and  _363
REMARK  145  A    between atoms: _363  and  _364
REMARK  146  A    between atoms: _363  and  _366
REMARK  147  A    between atoms: _366  and  _367
REMARK  148  A    between atoms: _370  and  _372
REMARK  149  A    between atoms: _372  and  _373
REMARK  150  A    between atoms: _372  and  _375
REMARK  151  A    between atoms: _375  and  _376
REMARK  152  A    between atoms: _381  and  _383
REMARK  153  A    between atoms: _383  and  _384
REMARK  154  A    between atoms: _383  and  _386
REMARK  155  A    between atoms: _386  and  _387
REMARK  156  A    between atoms: _397  and  _399
REMARK  157  A    between atoms: _399  and  _400
REMARK  158  A    between atoms: _399  and  _402
REMARK  159  A    between atoms: _402  and  _403
REMARK  160  A    between atoms: _409  and  _411
REMARK  161  A    between atoms: _411  and  _412
REMARK  162  A    between atoms: _411  and  _414
REMARK  163  A    between atoms: _414  and  _415
REMARK  164  A    between atoms: _418  and  _420
REMARK  165  A    between atoms: _420  and  _421
REMARK  166  A    between atoms: _420  and  _423
REMARK  167  A    between atoms: _423  and  _424
REMARK  168  A    between atoms: _424  and  _425
REMARK  169  A    between atoms: _425  and  _426
REMARK  170  A    between atoms: _435  and  _437
REMARK  171  A    between atoms: _437  and  _438
REMARK  172  A    between atoms: _437  and  _440
REMARK  173  A    between atoms: _440  and  _441
REMARK  174  A    between atoms: _446  and  _448
REMARK  175  A    between atoms: _448  and  _449
REMARK  176  A    between atoms: _448  and  _451
REMARK  177  A    between atoms: _451  and  _452
REMARK  178  A    between atoms: _452  and  _453
REMARK  179  A    between atoms: _453  and  _454
REMARK  180  A    between atoms: _463  and  _465
REMARK  181  A    between atoms: _465  and  _466
REMARK  182  A    between atoms: _469  and  _471
REMARK  183  A    between atoms: _471  and  _472
REMARK  184  A    between atoms: _474  and  _476
REMARK  185  A    between atoms: _476  and  _477
REMARK  186  A    between atoms: _476  and  _479
REMARK  187  A    between atoms: _479  and  _480
REMARK  188  A    between atoms: _490  and  _492
REMARK  189  A    between atoms: _492  and  _493
REMARK  190  A    between atoms: _492  and  _495
REMARK  191  A    between atoms: _495  and  _496
REMARK  192  A    between atoms: _497  and  _499
REMARK  193  A    between atoms: _499  and  _500
REMARK  194  A    between atoms: _503  and  _505
REMARK  195  A    between atoms: _505  and  _506
REMARK  196  A    between atoms: _505  and  _508
REMARK  197  A    between atoms: _508  and  _509
REMARK  198  A    between atoms: _512  and  _514
REMARK  199  A    between atoms: _514  and  _515
REMARK  200  A    between atoms: _514  and  _517
REMARK  201  A    between atoms: _517  and  _518
REMARK  202  A    between atoms: _523  and  _524
REMARK  203  A    between atoms: _526  and  _528
REMARK  204  A    between atoms: _528  and  _529
REMARK  205  A    between atoms: _528  and  _531
REMARK  206  A    between atoms: _531  and  _532
REMARK  207  A    between atoms: _534  and  _536
REMARK  208  A    between atoms: _536  and  _537
REMARK  209  A    between atoms: _536  and  _539
REMARK  210  A    between atoms: _539  and  _540
REMARK  211  A    between atoms: _546  and  _548
REMARK  212  A    between atoms: _548  and  _549
REMARK  213  A    between atoms: _548  and  _551
REMARK  214  A    between atoms: _551  and  _552
REMARK  215  A    between atoms: _555  and  _557
REMARK  216  A    between atoms: _557  and  _558
REMARK  217  A    between atoms: _557  and  _560
REMARK  218  A    between atoms: _560  and  _561
REMARK  219  A    between atoms: _563  and  _565
REMARK  220  A    between atoms: _565  and  _566
REMARK  221  A    between atoms: _565  and  _568
REMARK  222  A    between atoms: _568  and  _569
REMARK  223  A    between atoms: _574  and  _576
REMARK  224  A    between atoms: _576  and  _577
REMARK  225  A    between atoms: _576  and  _579
REMARK  226  A    between atoms: _579  and  _580
REMARK  227  A    between atoms: _585  and  _587
REMARK  228  A    between atoms: _587  and  _588
REMARK  229  A    between atoms: _587  and  _590
REMARK  230  A    between atoms: _590  and  _591
REMARK  231  A    between atoms: _594  and  _596
REMARK  232  A    between atoms: _596  and  _597
REMARK  233  A    between atoms: _600  and  _602
REMARK  234  A    between atoms: _602  and  _603
REMARK  235  A    between atoms: _602  and  _605
REMARK  236  A    between atoms: _605  and  _606
REMARK  237  A    between atoms: _611  and  _612
REMARK  238  A    between atoms: _614  and  _616
REMARK  239  A    between atoms: _616  and  _617
REMARK  240  A    between atoms: _616  and  _619
REMARK  241  A    between atoms: _619  and  _620
REMARK  242  A    between atoms: _625  and  _626
REMARK  243  A    between atoms: _628  and  _630
REMARK  244  A    between atoms: _630  and  _631
REMARK  245  A    between atoms: _630  and  _633
REMARK  246  A    between atoms: _636  and  _638
REMARK  247  A    between atoms: _638  and  _639
REMARK  248  A    between atoms: _638  and  _641
REMARK  249  A    between atoms: _641  and  _642
REMARK  250  A    between atoms: _647  and  _649
REMARK  251  A    between atoms: _649  and  _650
REMARK  252  A    between atoms: _653  and  _655
REMARK  253  A    between atoms: _655  and  _656
REMARK  254  A    between atoms: _655  and  _658
REMARK  255  A    between atoms: _658  and  _659
REMARK  256  A    between atoms: _659  and  _660
REMARK  257  A    between atoms: _660  and  _661
REMARK  258  A    between atoms: _670  and  _672
REMARK  259  A    between atoms: _672  and  _673
REMARK  260  A    between atoms: _672  and  _675
REMARK  261  A    between atoms: _675  and  _676
REMARK  262  A    between atoms: _679  and  _681
REMARK  263  A    between atoms: _681  and  _682
REMARK  264  A    between atoms: _681  and  _684
REMARK  265  A    between atoms: _684  and  _685
REMARK  266  A    between atoms: _688  and  _690
REMARK  267  A    between atoms: _690  and  _691
REMARK  268  A    between atoms: _690  and  _693
REMARK  269  A    between atoms: _693  and  _694
REMARK                            x       y       z     vdW  Elec       q    Type
REMARK                         _______ _______ _______ _____ _____    ______ ____
ROOT
ATOM      1  O   HOH     1      -0.778  14.863   8.620  0.00  0.00    +0.000 OA
ENDROOT
TORSDOF 0
REMARK  Name = ../refined-set-2016/1b3f/1b3f_pocket.pdb
REMARK  269 active torsions:
REMARK  status: ('A' for Active; 'I' for Inactive)
REMARK    1  A    between atoms: _1  and  _3
REMARK    2  A    between atoms: _3  and  _4
REMARK    3  A    between atoms: _3  and  _6
REMARK    4  A    between atoms: _6  and  _7
REMARK    5  A    between atoms: _12  and  _14
REMARK    6  A    between atoms: _14  and  _15
REMARK    7  A    between atoms: _17  and  _19
REMARK    8  A    between atoms: _19  and  _20
REMARK    9  A    between atoms: _19  and  _22
REMARK   10  A    between atoms: _22  and  _23
REMARK   11  A    between atoms: _25  and  _27
REMARK   12  A    between atoms: _27  and  _28
REMARK   13  A    between atoms: _27  and  _30
REMARK   14  A    between atoms: _30  and  _31
REMARK   15  A    between atoms: _31  and  _32
REMARK   16  A    between atoms: _37  and  _39
REMARK   17  A    between atoms: _39  and  _40
REMARK   18  A    between atoms: _39  and  _42
REMARK   19  A    between atoms: _42  and  _43
REMARK   20  A    between atoms: _46  and  _48
REMARK   21  A    between atoms: _48  and  _49
REMARK   22  A    between atoms: _48  and  _51
REMARK   23  A    between atoms: _52  and  _53
REMARK   24  A    between atoms: _56  and  _58
REMARK   25  A    between atoms: _58  and  _59
REMARK   26  A    between atoms: _61  and  _63
REMARK   27  A    between atoms: _63  and  _64
REMARK   28  A    between atoms: _63  and  _66
REMARK   29  A    between atoms: _70  and  _71
REMARK   30  A    between atoms: _76  and  _78
REMARK   31  A    between atoms: _78  and  _79
REMARK   32  A    between atoms: _78  and  _81
REMARK   33  A    between atoms: _81  and  _82
REMARK   34  A    between atoms: _82  and  _83
REMARK   35  A    between atoms: _86  and  _88
REMARK   36  A    between atoms: _88  and  _89
REMARK   37  A    between atoms: _88  and  _91
REMARK   38  A    between atoms: _91  and  _92
REMARK   39  A    between atoms: _94  and  _96
REMARK   40  A    between atoms: _96  and  _97
REMARK   41  A    between atoms: _96  and  _99
REMARK   42  A    between atoms: _99  and  _100
REMARK   43  A    between atoms: _105  and  _107
REMARK   44  A    between atoms: _107  and  _108
REMARK   45  A    between atoms: _107  and  _110
REMARK   46  A    between atoms: _110  and  _111
REMARK   47  A    between atoms: _111  and  _112
REMARK   48  A    between atoms: _112  and  _113
REMARK   49  A    between atoms: _123  and  _124
REMARK   50  A    between atoms: _129  and  _131
REMARK   51  A    between atoms: _131  and  _132
REMARK   52  A    between atoms: _131  and  _134
REMARK   53  A    between atoms: _134  and  _135
REMARK   54  A    between atoms: _140  and  _141
REMARK   55  A    between atoms: _143  and  _145
REMARK   56  A    between atoms: _145  and  _146
REMARK   57  A    between atoms: _145  and  _148
REMARK   58  A    between atoms: _148  and  _149
REMARK   59  A    between atoms: _154  and  _155
REMARK   60  A    between atoms: _157  and  _159
REMARK   61  A    between atoms: _159  and  _160
REMARK   62  A    between atoms: _159  and  _162
REMARK   63  A    between atoms: _165  and  _167
REMARK   64  A    between atoms: _167  and  _168
REMARK   65  A    between atoms: _167  and  _170
REMARK   66  A    between atoms: _170  and  _171
REMARK   67  A    between atoms: _177  and  _178
REMARK   68  A    between atoms: _183  and  _185
REMARK   69  A    between atoms: _185  and  _186
REMARK   70  A    between atoms: _185  and  _188
REMARK   71  A    between atoms: _188  and  _189
REMARK   72  A    between atoms: _191  and  _193
REMARK   73  A    between atoms: _193  and  _194
REMARK   74  A    between atoms: _193  and  _196
REMARK   75  A    between atoms: _196  and  _197
REMARK   76  A    between atoms: _197  and  _198
REMARK   77  A    between atoms: _201  and  _203
REMARK   78  A    between atoms: _203  and  _204
REMARK   79  A    between atoms: _203  and  _206
REMARK   80  A    between atoms: _206  and  _207
REMARK   81  A    between atoms: _212  and  _213
REMARK   82  A    between atoms: _215  and  _217
REMARK   83  A    between atoms: _217  and  _218
REMARK   84  A    between atoms: _217  and  _220
REMARK   85  A    between atoms: _220  and  _221
REMARK   86  A    between atoms: _226  and  _228
REMARK   87  A    between atoms: _228  and  _229
REMARK   88  A    between atoms: _228  and  _231
REMARK   89  A    between atoms: _231  and  _232
REMARK   90  A    between atoms: _237  and  _239
REMARK   91  A    between atoms: _239  and  _240
REMARK   92  A    between atoms: _239  and  _242
REMARK   93  A    between atoms: _242  and  _243
REMARK   94  A    between atoms: _243  and  _244
REMARK   95  A    between atoms: _246  and  _248
REMARK   96  A    between atoms: _248  and  _249
REMARK   97  A    between atoms: _248  and  _251
REMARK   98  A    between atoms: _251  and  _252
REMARK   99  A    between atoms: _257  and  _258
REMARK  100  A    between atoms: _260  and  _262
REMARK  101  A    between atoms: _262  and  _263
REMARK  102  A    between atoms: _262  and  _265
REMARK  103  A    between atoms: _265  and  _266
REMARK  104  A    between atoms: _269  and  _271
REMARK  105  A    between atoms: _271  and  _272
REMARK  106  A    between atoms: _271  and  _274
REMARK  107  A    between atoms: _274  and  _275
REMARK  108  A    between atoms: _275  and  _496
REMARK  109  A    between atoms: _276  and  _278
REMARK  110  A    between atoms: _278  and  _279
REMARK  111  A    between atoms: _278  and  _281
REMARK  112  A    between atoms: _281  and  _282
REMARK  113  A    between atoms: _285  and  _287
REMARK  114  A    between atoms: _287  and  _288
REMARK  115  A    between atoms: _287  and  _290
REMARK  116  A    between atoms: _290  and  _291
REMARK  117  A    between atoms: _296  and  _297
REMARK  118  A    between atoms: _299  and  _301
REMARK  119  A    between atoms: _301  and  _302
REMARK  120  A    between atoms: _301  and  _304
REMARK  121  A    between atoms: _304  and  _305
REMARK  122  A    between atoms: _310  and  _311
REMARK  123  A    between atoms: _313  and  _315
REMARK  124  A    between atoms: _315  and  _316
REMARK  125  A    between atoms: _315  and  _318
REMARK  126  A    between atoms: _318  and  _319
REMARK  127  A    between atoms: _319  and  _320
REMARK  128  A    between atoms: _323  and  _325
REMARK  129  A    between atoms: _325  and  _326
REMARK  130  A    between atoms: _325  and  _328
REMARK  131  A    between atoms: _328  and  _329
REMARK  132  A    between atoms: _329  and  _330
REMARK  133  A    between atoms: _330  and  _331
REMARK  134  A    between atoms: _331  and  _332
REMARK  135  A    between atoms: _336  and  _338
REMARK  136  A    between atoms: _338  and  _339
REMARK  137  A    between atoms: _338  and  _341
REMARK  138  A    between atoms: _341  and  _342
REMARK  139  A    between atoms: _347  and  _348
REMARK  140  A    between atoms: _350  and  _352
REMARK  141  A    between atoms: _352  and  _353
REMARK  142  A    between atoms: _352  and  _355
REMARK  143  A    between atoms: _355  and  _356
REMARK  144  A    between atoms: _361  and  _363
REMARK  145  A    between atoms: _363  and  _364
REMARK  146  A    between atoms: _363  and  _366
REMARK  147  A    between atoms: _366  and  _367
REMARK  148  A    between atoms: _370  and  _372
REMARK  149  A    between atoms: _372  and  _373
REMARK  150  A    between atoms: _372  and  _375
REMARK  151  A    between atoms: _375  and  _376
REMARK  152  A    between atoms: _381  and  _383
REMARK  153  A    between atoms: _383  and  _384
REMARK  154  A    between atoms: _383  and  _386
REMARK  155  A    between atoms: _386  and  _387
REMARK  156  A    between atoms: _397  and  _399
REMARK  157  A    between atoms: _399  and  _400
REMARK  158  A    between atoms: _399  and  _402
REMARK  159  A    between atoms: _402  and  _403
REMARK  160  A    between atoms: _409  and  _411
REMARK  161  A    between atoms: _411  and  _412
REMARK  162  A    between atoms: _411  and  _414
REMARK  163  A    between atoms: _414  and  _415
REMARK  164  A    between atoms: _418  and  _420
REMARK  165  A    between atoms: _420  and  _421
REMARK  166  A    between atoms: _420  and  _423
REMARK  167  A    between atoms: _423  and  _424
REMARK  168  A    between atoms: _424  and  _425
REMARK  169  A    between atoms: _425  and  _426
REMARK  170  A    between atoms: _435  and  _437
REMARK  171  A    between atoms: _437  and  _438
REMARK  172  A    between atoms: _437  and  _440
REMARK  173  A    between atoms: _440  and  _441
REMARK  174  A    between atoms: _446  and  _448
REMARK  175  A    between atoms: _448  and  _449
REMARK  176  A    between atoms: _448  and  _451
REMARK  177  A    between atoms: _451  and  _452
REMARK  178  A    between atoms: _452  and  _453
REMARK  179  A    between atoms: _453  and  _454
REMARK  180  A    between atoms: _463  and  _465
REMARK  181  A    between atoms: _465  and  _466
REMARK  182  A    between atoms: _469  and  _471
REMARK  183  A    between atoms: _471  and  _472
REMARK  184  A    between atoms: _474  and  _476
REMARK  185  A    between atoms: _476  and  _477
REMARK  186  A    between atoms: _476  and  _479
REMARK  187  A    between atoms: _479  and  _480
REMARK  188  A    between atoms: _490  and  _492
REMARK  189  A    between atoms: _492  and  _493
REMARK  190  A    between atoms: _492  and  _495
REMARK  191  A    between atoms: _495  and  _496
REMARK  192  A    between atoms: _497  and  _499
REMARK  193  A    between atoms: _499  and  _500
REMARK  194  A    between atoms: _503  and  _505
REMARK  195  A    between atoms: _505  and  _506
REMARK  196  A    between atoms: _505  and  _508
REMARK  197  A    between atoms: _508  and  _509
REMARK  198  A    between atoms: _512  and  _514
REMARK  199  A    between atoms: _514  and  _515
REMARK  200  A    between atoms: _514  and  _517
REMARK  201  A    between atoms: _517  and  _518
REMARK  202  A    between atoms: _523  and  _524
REMARK  203  A    between atoms: _526  and  _528
REMARK  204  A    between atoms: _528  and  _529
REMARK  205  A    between atoms: _528  and  _531
REMARK  206  A    between atoms: _531  and  _532
REMARK  207  A    between atoms: _534  and  _536
REMARK  208  A    between atoms: _536  and  _537
REMARK  209  A    between atoms: _536  and  _539
REMARK  210  A    between atoms: _539  and  _540
REMARK  211  A    between atoms: _546  and  _548
REMARK  212  A    between atoms: _548  and  _549
REMARK  213  A    between atoms: _548  and  _551
REMARK  214  A    between atoms: _551  and  _552
REMARK  215  A    between atoms: _555  and  _557
REMARK  216  A    between atoms: _557  and  _558
REMARK  217  A    between atoms: _557  and  _560
REMARK  218  A    between atoms: _560  and  _561
REMARK  219  A    between atoms: _563  and  _565
REMARK  220  A    between atoms: _565  and  _566
REMARK  221  A    between atoms: _565  and  _568
REMARK  222  A    between atoms: _568  and  _569
REMARK  223  A    between atoms: _574  and  _576
REMARK  224  A    between atoms: _576  and  _577
REMARK  225  A    between atoms: _576  and  _579
REMARK  226  A    between atoms: _579  and  _580
REMARK  227  A    between atoms: _585  and  _587
REMARK  228  A    between atoms: _587  and  _588
REMARK  229  A    between atoms: _587  and  _590
REMARK  230  A    between atoms: _590  and  _591
REMARK  231  A    between atoms: _594  and  _596
REMARK  232  A    between atoms: _596  and  _597
REMARK  233  A    between atoms: _600  and  _602
REMARK  234  A    between atoms: _602  and  _603
REMARK  235  A    between atoms: _602  and  _605
REMARK  236  A    between atoms: _605  and  _606
REMARK  237  A    between atoms: _611  and  _612
REMARK  238  A    between atoms: _614  and  _616
REMARK  239  A    between atoms: _616  and  _617
REMARK  240  A    between atoms: _616  and  _619
REMARK  241  A    between atoms: _619  and  _620
REMARK  242  A    between atoms: _625  and  _626
REMARK  243  A    between atoms: _628  and  _630
REMARK  244  A    between atoms: _630  and  _631
REMARK  245  A    between atoms: _630  and  _633
REMARK  246  A    between atoms: _636  and  _638
REMARK  247  A    between atoms: _638  and  _639
REMARK  248  A    between atoms: _638  and  _641
REMARK  249  A    between atoms: _641  and  _642
REMARK  250  A    between atoms: _647  and  _649
REMARK  251  A    between atoms: _649  and  _650
REMARK  252  A    between atoms: _653  and  _655
REMARK  253  A    between atoms: _655  and  _656
REMARK  254  A    between atoms: _655  and  _658
REMARK  255  A    between atoms: _658  and  _659
REMARK  256  A    between atoms: _659  and  _660
REMARK  257  A    between atoms: _660  and  _661
REMARK  258  A    between atoms: _670  and  _672
REMARK  259  A    between atoms: _672  and  _673
REMARK  260  A    between atoms: _672  and  _675
REMARK  261  A    between atoms: _675  and  _676
REMARK  262  A    between atoms: _679  and  _681
REMARK  263  A    between atoms: _681  and  _682
REMARK  264  A    between atoms: _681  and  _684
REMARK  265  A    between atoms: _684  and  _685
REMARK  266  A    between atoms: _688  and  _690
REMARK  267  A    between atoms: _690  and  _691
REMARK  268  A    between atoms: _690  and  _693
REMARK  269  A    between atoms: _693  and  _694
REMARK                            x       y       z     vdW  Elec       q    Type
REMARK                         _______ _______ _______ _____ _____    ______ ____
ROOT
ATOM      1  O   HOH     1      -2.315  24.264  12.196  0.00  0.00    +0.000 OA
ENDROOT
TORSDOF 0
REMARK  Name = ../refined-set-2016/1b3f/1b3f_pocket.pdb
REMARK  269 active torsions:
REMARK  status: ('A' for Active; 'I' for Inactive)
REMARK    1  A    between atoms: _1  and  _3
REMARK    2  A    between atoms: _3  and  _4
REMARK    3  A    between atoms: _3  and  _6
REMARK    4  A    between atoms: _6  and  _7
REMARK    5  A    between atoms: _12  and  _14
REMARK    6  A    between atoms: _14  and  _15
REMARK    7  A    between atoms: _17  and  _19
REMARK    8  A    between atoms: _19  and  _20
REMARK    9  A    between atoms: _19  and  _22
REMARK   10  A    between atoms: _22  and  _23
REMARK   11  A    between atoms: _25  and  _27
REMARK   12  A    between atoms: _27  and  _28
REMARK   13  A    between atoms: _27  and  _30
REMARK   14  A    between atoms: _30  and  _31
REMARK   15  A    between atoms: _31  and  _32
REMARK   16  A    between atoms: _37  and  _39
REMARK   17  A    between atoms: _39  and  _40
REMARK   18  A    between atoms: _39  and  _42
REMARK   19  A    between atoms: _42  and  _43
REMARK   20  A    between atoms: _46  and  _48
REMARK   21  A    between atoms: _48  and  _49
REMARK   22  A    between atoms: _48  and  _51
REMARK   23  A    between atoms: _52  and  _53
REMARK   24  A    between atoms: _56  and  _58
REMARK   25  A    between atoms: _58  and  _59
REMARK   26  A    between atoms: _61  and  _63
REMARK   27  A    between atoms: _63  and  _64
REMARK   28  A    between atoms: _63  and  _66
REMARK   29  A    between atoms: _70  and  _71
REMARK   30  A    between atoms: _76  and  _78
REMARK   31  A    between atoms: _78  and  _79
REMARK   32  A    between atoms: _78  and  _81
REMARK   33  A    between atoms: _81  and  _82
REMARK   34  A    between atoms: _82  and  _83
REMARK   35  A    between atoms: _86  and  _88
REMARK   36  A    between atoms: _88  and  _89
REMARK   37  A    between atoms: _88  and  _91
REMARK   38  A    between atoms: _91  and  _92
REMARK   39  A    between atoms: _94  and  _96
REMARK   40  A    between atoms: _96  and  _97
REMARK   41  A    between atoms: _96  and  _99
REMARK   42  A    between atoms: _99  and  _100
REMARK   43  A    between atoms: _105  and  _107
REMARK   44  A    between atoms: _107  and  _108
REMARK   45  A    between atoms: _107  and  _110
REMARK   46  A    between atoms: _110  and  _111
REMARK   47  A    between atoms: _111  and  _112
REMARK   48  A    between atoms: _112  and  _113
REMARK   49  A    between atoms: _123  and  _124
REMARK   50  A    between atoms: _129  and  _131
REMARK   51  A    between atoms: _131  and  _132
REMARK   52  A    between atoms: _131  and  _134
REMARK   53  A    between atoms: _134  and  _135
REMARK   54  A    between atoms: _140  and  _141
REMARK   55  A    between atoms: _143  and  _145
REMARK   56  A    between atoms: _145  and  _146
REMARK   57  A    between atoms: _145  and  _148
REMARK   58  A    between atoms: _148  and  _149
REMARK   59  A    between atoms: _154  and  _155
REMARK   60  A    between atoms: _157  and  _159
REMARK   61  A    between atoms: _159  and  _160
REMARK   62  A    between atoms: _159  and  _162
REMARK   63  A    between atoms: _165  and  _167
REMARK   64  A    between atoms: _167  and  _168
REMARK   65  A    between atoms: _167  and  _170
REMARK   66  A    between atoms: _170  and  _171
REMARK   67  A    between atoms: _177  and  _178
REMARK   68  A    between atoms: _183  and  _185
REMARK   69  A    between atoms: _185  and  _186
REMARK   70  A    between atoms: _185  and  _188
REMARK   71  A    between atoms: _188  and  _189
REMARK   72  A    between atoms: _191  and  _193
REMARK   73  A    between atoms: _193  and  _194
REMARK   74  A    between atoms: _193  and  _196
REMARK   75  A    between atoms: _196  and  _197
REMARK   76  A    between atoms: _197  and  _198
REMARK   77  A    between atoms: _201  and  _203
REMARK   78  A    between atoms: _203  and  _204
REMARK   79  A    between atoms: _203  and  _206
REMARK   80  A    between atoms: _206  and  _207
REMARK   81  A    between atoms: _212  and  _213
REMARK   82  A    between atoms: _215  and  _217
REMARK   83  A    between atoms: _217  and  _218
REMARK   84  A    between atoms: _217  and  _220
REMARK   85  A    between atoms: _220  and  _221
REMARK   86  A    between atoms: _226  and  _228
REMARK   87  A    between atoms: _228  and  _229
REMARK   88  A    between atoms: _228  and  _231
REMARK   89  A    between atoms: _231  and  _232
REMARK   90  A    between atoms: _237  and  _239
REMARK   91  A    between atoms: _239  and  _240
REMARK   92  A    between atoms: _239  and  _242
REMARK   93  A    between atoms: _242  and  _243
REMARK   94  A    between atoms: _243  and  _244
REMARK   95  A    between atoms: _246  and  _248
REMARK   96  A    between atoms: _248  and  _249
REMARK   97  A    between atoms: _248  and  _251
REMARK   98  A    between atoms: _251  and  _252
REMARK   99  A    between atoms: _257  and  _258
REMARK  100  A    between atoms: _260  and  _262
REMARK  101  A    between atoms: _262  and  _263
REMARK  102  A    between atoms: _262  and  _265
REMARK  103  A    between atoms: _265  and  _266
REMARK  104  A    between atoms: _269  and  _271
REMARK  105  A    between atoms: _271  and  _272
REMARK  106  A    between atoms: _271  and  _274
REMARK  107  A    between atoms: _274  and  _275
REMARK  108  A    between atoms: _275  and  _496
REMARK  109  A    between atoms: _276  and  _278
REMARK  110  A    between atoms: _278  and  _279
REMARK  111  A    between atoms: _278  and  _281
REMARK  112  A    between atoms: _281  and  _282
REMARK  113  A    between atoms: _285  and  _287
REMARK  114  A    between atoms: _287  and  _288
REMARK  115  A    between atoms: _287  and  _290
REMARK  116  A    between atoms: _290  and  _291
REMARK  117  A    between atoms: _296  and  _297
REMARK  118  A    between atoms: _299  and  _301
REMARK  119  A    between atoms: _301  and  _302
REMARK  120  A    between atoms: _301  and  _304
REMARK  121  A    between atoms: _304  and  _305
REMARK  122  A    between atoms: _310  and  _311
REMARK  123  A    between atoms: _313  and  _315
REMARK  124  A    between atoms: _315  and  _316
REMARK  125  A    between atoms: _315  and  _318
REMARK  126  A    between atoms: _318  and  _319
REMARK  127  A    between atoms: _319  and  _320
REMARK  128  A    between atoms: _323  and  _325
REMARK  129  A    between atoms: _325  and  _326
REMARK  130  A    between atoms: _325  and  _328
REMARK  131  A    between atoms: _328  and  _329
REMARK  132  A    between atoms: _329  and  _330
REMARK  133  A    between atoms: _330  and  _331
REMARK  134  A    between atoms: _331  and  _332
REMARK  135  A    between atoms: _336  and  _338
REMARK  136  A    between atoms: _338  and  _339
REMARK  137  A    between atoms: _338  and  _341
REMARK  138  A    between atoms: _341  and  _342
REMARK  139  A    between atoms: _347  and  _348
REMARK  140  A    between atoms: _350  and  _352
REMARK  141  A    between atoms: _352  and  _353
REMARK  142  A    between atoms: _352  and  _355
REMARK  143  A    between atoms: _355  and  _356
REMARK  144  A    between atoms: _361  and  _363
REMARK  145  A    between atoms: _363  and  _364
REMARK  146  A    between atoms: _363  and  _366
REMARK  147  A    between atoms: _366  and  _367
REMARK  148  A    between atoms: _370  and  _372
REMARK  149  A    between atoms: _372  and  _373
REMARK  150  A    between atoms: _372  and  _375
REMARK  151  A    between atoms: _375  and  _376
REMARK  152  A    between atoms: _381  and  _383
REMARK  153  A    between atoms: _383  and  _384
REMARK  154  A    between atoms: _383  and  _386
REMARK  155  A    between atoms: _386  and  _387
REMARK  156  A    between atoms: _397  and  _399
REMARK  157  A    between atoms: _399  and  _400
REMARK  158  A    between atoms: _399  and  _402
REMARK  159  A    between atoms: _402  and  _403
REMARK  160  A    between atoms: _409  and  _411
REMARK  161  A    between atoms: _411  and  _412
REMARK  162  A    between atoms: _411  and  _414
REMARK  163  A    between atoms: _414  and  _415
REMARK  164  A    between atoms: _418  and  _420
REMARK  165  A    between atoms: _420  and  _421
REMARK  166  A    between atoms: _420  and  _423
REMARK  167  A    between atoms: _423  and  _424
REMARK  168  A    between atoms: _424  and  _425
REMARK  169  A    between atoms: _425  and  _426
REMARK  170  A    between atoms: _435  and  _437
REMARK  171  A    between atoms: _437  and  _438
REMARK  172  A    between atoms: _437  and  _440
REMARK  173  A    between atoms: _440  and  _441
REMARK  174  A    between atoms: _446  and  _448
REMARK  175  A    between atoms: _448  and  _449
REMARK  176  A    between atoms: _448  and  _451
REMARK  177  A    between atoms: _451  and  _452
REMARK  178  A    between atoms: _452  and  _453
REMARK  179  A    between atoms: _453  and  _454
REMARK  180  A    between atoms: _463  and  _465
REMARK  181  A    between atoms: _465  and  _466
REMARK  182  A    between atoms: _469  and  _471
REMARK  183  A    between atoms: _471  and  _472
REMARK  184  A    between atoms: _474  and  _476
REMARK  185  A    between atoms: _476  and  _477
REMARK  186  A    between atoms: _476  and  _479
REMARK  187  A    between atoms: _479  and  _480
REMARK  188  A    between atoms: _490  and  _492
REMARK  189  A    between atoms: _492  and  _493
REMARK  190  A    between atoms: _492  and  _495
REMARK  191  A    between atoms: _495  and  _496
REMARK  192  A    between atoms: _497  and  _499
REMARK  193  A    between atoms: _499  and  _500
REMARK  194  A    between atoms: _503  and  _505
REMARK  195  A    between atoms: _505  and  _506
REMARK  196  A    between atoms: _505  and  _508
REMARK  197  A    between atoms: _508  and  _509
REMARK  198  A    between atoms: _512  and  _514
REMARK  199  A    between atoms: _514  and  _515
REMARK  200  A    between atoms: _514  and  _517
REMARK  201  A    between atoms: _517  and  _518
REMARK  202  A    between atoms: _523  and  _524
REMARK  203  A    between atoms: _526  and  _528
REMARK  204  A    between atoms: _528  and  _529
REMARK  205  A    between atoms: _528  and  _531
REMARK  206  A    between atoms: _531  and  _532
REMARK  207  A    between atoms: _534  and  _536
REMARK  208  A    between atoms: _536  and  _537
REMARK  209  A    between atoms: _536  and  _539
REMARK  210  A    between atoms: _539  and  _540
REMARK  211  A    between atoms: _546  and  _548
REMARK  212  A    between atoms: _548  and  _549
REMARK  213  A    between atoms: _548  and  _551
REMARK  214  A    between atoms: _551  and  _552
REMARK  215  A    between atoms: _555  and  _557
REMARK  216  A    between atoms: _557  and  _558
REMARK  217  A    between atoms: _557  and  _560
REMARK  218  A    between atoms: _560  and  _561
REMARK  219  A    between atoms: _563  and  _565
REMARK  220  A    between atoms: _565  and  _566
REMARK  221  A    between atoms: _565  and  _568
REMARK  222  A    between atoms: _568  and  _569
REMARK  223  A    between atoms: _574  and  _576
REMARK  224  A    between atoms: _576  and  _577
REMARK  225  A    between atoms: _576  and  _579
REMARK  226  A    between atoms: _579  and  _580
REMARK  227  A    between atoms: _585  and  _587
REMARK  228  A    between atoms: _587  and  _588
REMARK  229  A    between atoms: _587  and  _590
REMARK  230  A    between atoms: _590  and  _591
REMARK  231  A    between atoms: _594  and  _596
REMARK  232  A    between atoms: _596  and  _597
REMARK  233  A    between atoms: _600  and  _602
REMARK  234  A    between atoms: _602  and  _603
REMARK  235  A    between atoms: _602  and  _605
REMARK  236  A    between atoms: _605  and  _606
REMARK  237  A    between atoms: _611  and  _612
REMARK  238  A    between atoms: _614  and  _616
REMARK  239  A    between atoms: _616  and  _617
REMARK  240  A    between atoms: _616  and  _619
REMARK  241  A    between atoms: _619  and  _620
REMARK  242  A    between atoms: _625  and  _626
REMARK  243  A    between atoms: _628  and  _630
REMARK  244  A    between atoms: _630  and  _631
REMARK  245  A    between atoms: _630  and  _633
REMARK  246  A    between atoms: _636  and  _638
REMARK  247  A    between atoms: _638  and  _639
REMARK  248  A    between atoms: _638  and  _641
REMARK  249  A    between atoms: _641  and  _642
REMARK  250  A    between atoms: _647  and  _649
REMARK  251  A    between atoms: _649  and  _650
REMARK  252  A    between atoms: _653  and  _655
REMARK  253  A    between atoms: _655  and  _656
REMARK  254  A    between atoms: _655  and  _658
REMARK  255  A    between atoms: _658  and  _659
REMARK  256  A    between atoms: _659  and  _660
REMARK  257  A    between atoms: _660  and  _661
REMARK  258  A    between atoms: _670  and  _672
REMARK  259  A    between atoms: _672  and  _673
REMARK  260  A    between atoms: _672  and  _675
REMARK  261  A    between atoms: _675  and  _676
REMARK  262  A    between atoms: _679  and  _681
REMARK  263  A    between atoms: _681  and  _682
REMARK  264  A    between atoms: _681  and  _684
REMARK  265  A    between atoms: _684  and  _685
REMARK  266  A    between atoms: _688  and  _690
REMARK  267  A    between atoms: _690  and  _691
REMARK  268  A    between atoms: _690  and  _693
REMARK  269  A    between atoms: _693  and  _694
REMARK                            x       y       z     vdW  Elec       q    Type
REMARK                         _______ _______ _______ _____ _____    ______ ____
ROOT
ATOM      1  O   HOH     1      -8.265  15.744  17.003  0.00  0.00    +0.000 OA
ENDROOT
TORSDOF 0
REMARK  Name = ../refined-set-2016/1b3f/1b3f_pocket.pdb
REMARK  269 active torsions:
REMARK  status: ('A' for Active; 'I' for Inactive)
REMARK    1  A    between atoms: _1  and  _3
REMARK    2  A    between atoms: _3  and  _4
REMARK    3  A    between atoms: _3  and  _6
REMARK    4  A    between atoms: _6  and  _7
REMARK    5  A    between atoms: _12  and  _14
REMARK    6  A    between atoms: _14  and  _15
REMARK    7  A    between atoms: _17  and  _19
REMARK    8  A    between atoms: _19  and  _20
REMARK    9  A    between atoms: _19  and  _22
REMARK   10  A    between atoms: _22  and  _23
REMARK   11  A    between atoms: _25  and  _27
REMARK   12  A    between atoms: _27  and  _28
REMARK   13  A    between atoms: _27  and  _30
REMARK   14  A    between atoms: _30  and  _31
REMARK   15  A    between atoms: _31  and  _32
REMARK   16  A    between atoms: _37  and  _39
REMARK   17  A    between atoms: _39  and  _40
REMARK   18  A    between atoms: _39  and  _42
REMARK   19  A    between atoms: _42  and  _43
REMARK   20  A    between atoms: _46  and  _48
REMARK   21  A    between atoms: _48  and  _49
REMARK   22  A    between atoms: _48  and  _51
REMARK   23  A    between atoms: _52  and  _53
REMARK   24  A    between atoms: _56  and  _58
REMARK   25  A    between atoms: _58  and  _59
REMARK   26  A    between atoms: _61  and  _63
REMARK   27  A    between atoms: _63  and  _64
REMARK   28  A    between atoms: _63  and  _66
REMARK   29  A    between atoms: _70  and  _71
REMARK   30  A    between atoms: _76  and  _78
REMARK   31  A    between atoms: _78  and  _79
REMARK   32  A    between atoms: _78  and  _81
REMARK   33  A    between atoms: _81  and  _82
REMARK   34  A    between atoms: _82  and  _83
REMARK   35  A    between atoms: _86  and  _88
REMARK   36  A    between atoms: _88  and  _89
REMARK   37  A    between atoms: _88  and  _91
REMARK   38  A    between atoms: _91  and  _92
REMARK   39  A    between atoms: _94  and  _96
REMARK   40  A    between atoms: _96  and  _97
REMARK   41  A    between atoms: _96  and  _99
REMARK   42  A    between atoms: _99  and  _100
REMARK   43  A    between atoms: _105  and  _107
REMARK   44  A    between atoms: _107  and  _108
REMARK   45  A    between atoms: _107  and  _110
REMARK   46  A    between atoms: _110  and  _111
REMARK   47  A    between atoms: _111  and  _112
REMARK   48  A    between atoms: _112  and  _113
REMARK   49  A    between atoms: _123  and  _124
REMARK   50  A    between atoms: _129  and  _131
REMARK   51  A    between atoms: _131  and  _132
REMARK   52  A    between atoms: _131  and  _134
REMARK   53  A    between atoms: _134  and  _135
REMARK   54  A    between atoms: _140  and  _141
REMARK   55  A    between atoms: _143  and  _145
REMARK   56  A    between atoms: _145  and  _146
REMARK   57  A    between atoms: _145  and  _148
REMARK   58  A    between atoms: _148  and  _149
REMARK   59  A    between atoms: _154  and  _155
REMARK   60  A    between atoms: _157  and  _159
REMARK   61  A    between atoms: _159  and  _160
REMARK   62  A    between atoms: _159  and  _162
REMARK   63  A    between atoms: _165  and  _167
REMARK   64  A    between atoms: _167  and  _168
REMARK   65  A    between atoms: _167  and  _170
REMARK   66  A    between atoms: _170  and  _171
REMARK   67  A    between atoms: _177  and  _178
REMARK   68  A    between atoms: _183  and  _185
REMARK   69  A    between atoms: _185  and  _186
REMARK   70  A    between atoms: _185  and  _188
REMARK   71  A    between atoms: _188  and  _189
REMARK   72  A    between atoms: _191  and  _193
REMARK   73  A    between atoms: _193  and  _194
REMARK   74  A    between atoms: _193  and  _196
REMARK   75  A    between atoms: _196  and  _197
REMARK   76  A    between atoms: _197  and  _198
REMARK   77  A    between atoms: _201  and  _203
REMARK   78  A    between atoms: _203  and  _204
REMARK   79  A    between atoms: _203  and  _206
REMARK   80  A    between atoms: _206  and  _207
REMARK   81  A    between atoms: _212  and  _213
REMARK   82  A    between atoms: _215  and  _217
REMARK   83  A    between atoms: _217  and  _218
REMARK   84  A    between atoms: _217  and  _220
REMARK   85  A    between atoms: _220  and  _221
REMARK   86  A    between atoms: _226  and  _228
REMARK   87  A    between atoms: _228  and  _229
REMARK   88  A    between atoms: _228  and  _231
REMARK   89  A    between atoms: _231  and  _232
REMARK   90  A    between atoms: _237  and  _239
REMARK   91  A    between atoms: _239  and  _240
REMARK   92  A    between atoms: _239  and  _242
REMARK   93  A    between atoms: _242  and  _243
REMARK   94  A    between atoms: _243  and  _244
REMARK   95  A    between atoms: _246  and  _248
REMARK   96  A    between atoms: _248  and  _249
REMARK   97  A    between atoms: _248  and  _251
REMARK   98  A    between atoms: _251  and  _252
REMARK   99  A    between atoms: _257  and  _258
REMARK  100  A    between atoms: _260  and  _262
REMARK  101  A    between atoms: _262  and  _263
REMARK  102  A    between atoms: _262  and  _265
REMARK  103  A    between atoms: _265  and  _266
REMARK  104  A    between atoms: _269  and  _271
REMARK  105  A    between atoms: _271  and  _272
REMARK  106  A    between atoms: _271  and  _274
REMARK  107  A    between atoms: _274  and  _275
REMARK  108  A    between atoms: _275  and  _496
REMARK  109  A    between atoms: _276  and  _278
REMARK  110  A    between atoms: _278  and  _279
REMARK  111  A    between atoms: _278  and  _281
REMARK  112  A    between atoms: _281  and  _282
REMARK  113  A    between atoms: _285  and  _287
REMARK  114  A    between atoms: _287  and  _288
REMARK  115  A    between atoms: _287  and  _290
REMARK  116  A    between atoms: _290  and  _291
REMARK  117  A    between atoms: _296  and  _297
REMARK  118  A    between atoms: _299  and  _301
REMARK  119  A    between atoms: _301  and  _302
REMARK  120  A    between atoms: _301  and  _304
REMARK  121  A    between atoms: _304  and  _305
REMARK  122  A    between atoms: _310  and  _311
REMARK  123  A    between atoms: _313  and  _315
REMARK  124  A    between atoms: _315  and  _316
REMARK  125  A    between atoms: _315  and  _318
REMARK  126  A    between atoms: _318  and  _319
REMARK  127  A    between atoms: _319  and  _320
REMARK  128  A    between atoms: _323  and  _325
REMARK  129  A    between atoms: _325  and  _326
REMARK  130  A    between atoms: _325  and  _328
REMARK  131  A    between atoms: _328  and  _329
REMARK  132  A    between atoms: _329  and  _330
REMARK  133  A    between atoms: _330  and  _331
REMARK  134  A    between atoms: _331  and  _332
REMARK  135  A    between atoms: _336  and  _338
REMARK  136  A    between atoms: _338  and  _339
REMARK  137  A    between atoms: _338  and  _341
REMARK  138  A    between atoms: _341  and  _342
REMARK  139  A    between atoms: _347  and  _348
REMARK  140  A    between atoms: _350  and  _352
REMARK  141  A    between atoms: _352  and  _353
REMARK  142  A    between atoms: _352  and  _355
REMARK  143  A    between atoms: _355  and  _356
REMARK  144  A    between atoms: _361  and  _363
REMARK  145  A    between atoms: _363  and  _364
REMARK  146  A    between atoms: _363  and  _366
REMARK  147  A    between atoms: _366  and  _367
REMARK  148  A    between atoms: _370  and  _372
REMARK  149  A    between atoms: _372  and  _373
REMARK  150  A    between atoms: _372  and  _375
REMARK  151  A    between atoms: _375  and  _376
REMARK  152  A    between atoms: _381  and  _383
REMARK  153  A    between atoms: _383  and  _384
REMARK  154  A    between atoms: _383  and  _386
REMARK  155  A    between atoms: _386  and  _387
REMARK  156  A    between atoms: _397  and  _399
REMARK  157  A    between atoms: _399  and  _400
REMARK  158  A    between atoms: _399  and  _402
REMARK  159  A    between atoms: _402  and  _403
REMARK  160  A    between atoms: _409  and  _411
REMARK  161  A    between atoms: _411  and  _412
REMARK  162  A    between atoms: _411  and  _414
REMARK  163  A    between atoms: _414  and  _415
REMARK  164  A    between atoms: _418  and  _420
REMARK  165  A    between atoms: _420  and  _421
REMARK  166  A    between atoms: _420  and  _423
REMARK  167  A    between atoms: _423  and  _424
REMARK  168  A    between atoms: _424  and  _425
REMARK  169  A    between atoms: _425  and  _426
REMARK  170  A    between atoms: _435  and  _437
REMARK  171  A    between atoms: _437  and  _438
REMARK  172  A    between atoms: _437  and  _440
REMARK  173  A    between atoms: _440  and  _441
REMARK  174  A    between atoms: _446  and  _448
REMARK  175  A    between atoms: _448  and  _449
REMARK  176  A    between atoms: _448  and  _451
REMARK  177  A    between atoms: _451  and  _452
REMARK  178  A    between atoms: _452  and  _453
REMARK  179  A    between atoms: _453  and  _454
REMARK  180  A    between atoms: _463  and  _465
REMARK  181  A    between atoms: _465  and  _466
REMARK  182  A    between atoms: _469  and  _471
REMARK  183  A    between atoms: _471  and  _472
REMARK  184  A    between atoms: _474  and  _476
REMARK  185  A    between atoms: _476  and  _477
REMARK  186  A    between atoms: _476  and  _479
REMARK  187  A    between atoms: _479  and  _480
REMARK  188  A    between atoms: _490  and  _492
REMARK  189  A    between atoms: _492  and  _493
REMARK  190  A    between atoms: _492  and  _495
REMARK  191  A    between atoms: _495  and  _496
REMARK  192  A    between atoms: _497  and  _499
REMARK  193  A    between atoms: _499  and  _500
REMARK  194  A    between atoms: _503  and  _505
REMARK  195  A    between atoms: _505  and  _506
REMARK  196  A    between atoms: _505  and  _508
REMARK  197  A    between atoms: _508  and  _509
REMARK  198  A    between atoms: _512  and  _514
REMARK  199  A    between atoms: _514  and  _515
REMARK  200  A    between atoms: _514  and  _517
REMARK  201  A    between atoms: _517  and  _518
REMARK  202  A    between atoms: _523  and  _524
REMARK  203  A    between atoms: _526  and  _528
REMARK  204  A    between atoms: _528  and  _529
REMARK  205  A    between atoms: _528  and  _531
REMARK  206  A    between atoms: _531  and  _532
REMARK  207  A    between atoms: _534  and  _536
REMARK  208  A    between atoms: _536  and  _537
REMARK  209  A    between atoms: _536  and  _539
REMARK  210  A    between atoms: _539  and  _540
REMARK  211  A    between atoms: _546  and  _548
REMARK  212  A    between atoms: _548  and  _549
REMARK  213  A    between atoms: _548  and  _551
REMARK  214  A    between atoms: _551  and  _552
REMARK  215  A    between atoms: _555  and  _557
REMARK  216  A    between atoms: _557  and  _558
REMARK  217  A    between atoms: _557  and  _560
REMARK  218  A    between atoms: _560  and  _561
REMARK  219  A    between atoms: _563  and  _565
REMARK  220  A    between atoms: _565  and  _566
REMARK  221  A    between atoms: _565  and  _568
REMARK  222  A    between atoms: _568  and  _569
REMARK  223  A    between atoms: _574  and  _576
REMARK  224  A    between atoms: _576  and  _577
REMARK  225  A    between atoms: _576  and  _579
REMARK  226  A    between atoms: _579  and  _580
REMARK  227  A    between atoms: _585  and  _587
REMARK  228  A    between atoms: _587  and  _588
REMARK  229  A    between atoms: _587  and  _590
REMARK  230  A    between atoms: _590  and  _591
REMARK  231  A    between atoms: _594  and  _596
REMARK  232  A    between atoms: _596  and  _597
REMARK  233  A    between atoms: _600  and  _602
REMARK  234  A    between atoms: _602  and  _603
REMARK  235  A    between atoms: _602  and  _605
REMARK  236  A    between atoms: _605  and  _606
REMARK  237  A    between atoms: _611  and  _612
REMARK  238  A    between atoms: _614  and  _616
REMARK  239  A    between atoms: _616  and  _617
REMARK  240  A    between atoms: _616  and  _619
REMARK  241  A    between atoms: _619  and  _620
REMARK  242  A    between atoms: _625  and  _626
REMARK  243  A    between atoms: _628  and  _630
REMARK  244  A    between atoms: _630  and  _631
REMARK  245  A    between atoms: _630  and  _633
REMARK  246  A    between atoms: _636  and  _638
REMARK  247  A    between atoms: _638  and  _639
REMARK  248  A    between atoms: _638  and  _641
REMARK  249  A    between atoms: _641  and  _642
REMARK  250  A    between atoms: _647  and  _649
REMARK  251  A    between atoms: _649  and  _650
REMARK  252  A    between atoms: _653  and  _655
REMARK  253  A    between atoms: _655  and  _656
REMARK  254  A    between atoms: _655  and  _658
REMARK  255  A    between atoms: _658  and  _659
REMARK  256  A    between atoms: _659  and  _660
REMARK  257  A    between atoms: _660  and  _661
REMARK  258  A    between atoms: _670  and  _672
REMARK  259  A    between atoms: _672  and  _673
REMARK  260  A    between atoms: _672  and  _675
REMARK  261  A    between atoms: _675  and  _676
REMARK  262  A    between atoms: _679  and  _681
REMARK  263  A    between atoms: _681  and  _682
REMARK  264  A    between atoms: _681  and  _684
REMARK  265  A    between atoms: _684  and  _685
REMARK  266  A    between atoms: _688  and  _690
REMARK  267  A    between atoms: _690  and  _691
REMARK  268  A    between atoms: _690  and  _693
REMARK  269  A    between atoms: _693  and  _694
REMARK                            x       y       z     vdW  Elec       q    Type
REMARK                         _______ _______ _______ _____ _____    ______ ____
ROOT
ATOM      1  O   HOH     1      -8.490  14.562  12.608  0.00  0.00    +0.000 OA
ENDROOT
TORSDOF 0
REMARK  Name = ../refined-set-2016/1b3f/1b3f_pocket.pdb
REMARK  269 active torsions:
REMARK  status: ('A' for Active; 'I' for Inactive)
REMARK    1  A    between atoms: _1  and  _3
REMARK    2  A    between atoms: _3  and  _4
REMARK    3  A    between atoms: _3  and  _6
REMARK    4  A    between atoms: _6  and  _7
REMARK    5  A    between atoms: _12  and  _14
REMARK    6  A    between atoms: _14  and  _15
REMARK    7  A    between atoms: _17  and  _19
REMARK    8  A    between atoms: _19  and  _20
REMARK    9  A    between atoms: _19  and  _22
REMARK   10  A    between atoms: _22  and  _23
REMARK   11  A    between atoms: _25  and  _27
REMARK   12  A    between atoms: _27  and  _28
REMARK   13  A    between atoms: _27  and  _30
REMARK   14  A    between atoms: _30  and  _31
REMARK   15  A    between atoms: _31  and  _32
REMARK   16  A    between atoms: _37  and  _39
REMARK   17  A    between atoms: _39  and  _40
REMARK   18  A    between atoms: _39  and  _42
REMARK   19  A    between atoms: _42  and  _43
REMARK   20  A    between atoms: _46  and  _48
REMARK   21  A    between atoms: _48  and  _49
REMARK   22  A    between atoms: _48  and  _51
REMARK   23  A    between atoms: _52  and  _53
REMARK   24  A    between atoms: _56  and  _58
REMARK   25  A    between atoms: _58  and  _59
REMARK   26  A    between atoms: _61  and  _63
REMARK   27  A    between atoms: _63  and  _64
REMARK   28  A    between atoms: _63  and  _66
REMARK   29  A    between atoms: _70  and  _71
REMARK   30  A    between atoms: _76  and  _78
REMARK   31  A    between atoms: _78  and  _79
REMARK   32  A    between atoms: _78  and  _81
REMARK   33  A    between atoms: _81  and  _82
REMARK   34  A    between atoms: _82  and  _83
REMARK   35  A    between atoms: _86  and  _88
REMARK   36  A    between atoms: _88  and  _89
REMARK   37  A    between atoms: _88  and  _91
REMARK   38  A    between atoms: _91  and  _92
REMARK   39  A    between atoms: _94  and  _96
REMARK   40  A    between atoms: _96  and  _97
REMARK   41  A    between atoms: _96  and  _99
REMARK   42  A    between atoms: _99  and  _100
REMARK   43  A    between atoms: _105  and  _107
REMARK   44  A    between atoms: _107  and  _108
REMARK   45  A    between atoms: _107  and  _110
REMARK   46  A    between atoms: _110  and  _111
REMARK   47  A    between atoms: _111  and  _112
REMARK   48  A    between atoms: _112  and  _113
REMARK   49  A    between atoms: _123  and  _124
REMARK   50  A    between atoms: _129  and  _131
REMARK   51  A    between atoms: _131  and  _132
REMARK   52  A    between atoms: _131  and  _134
REMARK   53  A    between atoms: _134  and  _135
REMARK   54  A    between atoms: _140  and  _141
REMARK   55  A    between atoms: _143  and  _145
REMARK   56  A    between atoms: _145  and  _146
REMARK   57  A    between atoms: _145  and  _148
REMARK   58  A    between atoms: _148  and  _149
REMARK   59  A    between atoms: _154  and  _155
REMARK   60  A    between atoms: _157  and  _159
REMARK   61  A    between atoms: _159  and  _160
REMARK   62  A    between atoms: _159  and  _162
REMARK   63  A    between atoms: _165  and  _167
REMARK   64  A    between atoms: _167  and  _168
REMARK   65  A    between atoms: _167  and  _170
REMARK   66  A    between atoms: _170  and  _171
REMARK   67  A    between atoms: _177  and  _178
REMARK   68  A    between atoms: _183  and  _185
REMARK   69  A    between atoms: _185  and  _186
REMARK   70  A    between atoms: _185  and  _188
REMARK   71  A    between atoms: _188  and  _189
REMARK   72  A    between atoms: _191  and  _193
REMARK   73  A    between atoms: _193  and  _194
REMARK   74  A    between atoms: _193  and  _196
REMARK   75  A    between atoms: _196  and  _197
REMARK   76  A    between atoms: _197  and  _198
REMARK   77  A    between atoms: _201  and  _203
REMARK   78  A    between atoms: _203  and  _204
REMARK   79  A    between atoms: _203  and  _206
REMARK   80  A    between atoms: _206  and  _207
REMARK   81  A    between atoms: _212  and  _213
REMARK   82  A    between atoms: _215  and  _217
REMARK   83  A    between atoms: _217  and  _218
REMARK   84  A    between atoms: _217  and  _220
REMARK   85  A    between atoms: _220  and  _221
REMARK   86  A    between atoms: _226  and  _228
REMARK   87  A    between atoms: _228  and  _229
REMARK   88  A    between atoms: _228  and  _231
REMARK   89  A    between atoms: _231  and  _232
REMARK   90  A    between atoms: _237  and  _239
REMARK   91  A    between atoms: _239  and  _240
REMARK   92  A    between atoms: _239  and  _242
REMARK   93  A    between atoms: _242  and  _243
REMARK   94  A    between atoms: _243  and  _244
REMARK   95  A    between atoms: _246  and  _248
REMARK   96  A    between atoms: _248  and  _249
REMARK   97  A    between atoms: _248  and  _251
REMARK   98  A    between atoms: _251  and  _252
REMARK   99  A    between atoms: _257  and  _258
REMARK  100  A    between atoms: _260  and  _262
REMARK  101  A    between atoms: _262  and  _263
REMARK  102  A    between atoms: _262  and  _265
REMARK  103  A    between atoms: _265  and  _266
REMARK  104  A    between atoms: _269  and  _271
REMARK  105  A    between atoms: _271  and  _272
REMARK  106  A    between atoms: _271  and  _274
REMARK  107  A    between atoms: _274  and  _275
REMARK  108  A    between atoms: _275  and  _496
REMARK  109  A    between atoms: _276  and  _278
REMARK  110  A    between atoms: _278  and  _279
REMARK  111  A    between atoms: _278  and  _281
REMARK  112  A    between atoms: _281  and  _282
REMARK  113  A    between atoms: _285  and  _287
REMARK  114  A    between atoms: _287  and  _288
REMARK  115  A    between atoms: _287  and  _290
REMARK  116  A    between atoms: _290  and  _291
REMARK  117  A    between atoms: _296  and  _297
REMARK  118  A    between atoms: _299  and  _301
REMARK  119  A    between atoms: _301  and  _302
REMARK  120  A    between atoms: _301  and  _304
REMARK  121  A    between atoms: _304  and  _305
REMARK  122  A    between atoms: _310  and  _311
REMARK  123  A    between atoms: _313  and  _315
REMARK  124  A    between atoms: _315  and  _316
REMARK  125  A    between atoms: _315  and  _318
REMARK  126  A    between atoms: _318  and  _319
REMARK  127  A    between atoms: _319  and  _320
REMARK  128  A    between atoms: _323  and  _325
REMARK  129  A    between atoms: _325  and  _326
REMARK  130  A    between atoms: _325  and  _328
REMARK  131  A    between atoms: _328  and  _329
REMARK  132  A    between atoms: _329  and  _330
REMARK  133  A    between atoms: _330  and  _331
REMARK  134  A    between atoms: _331  and  _332
REMARK  135  A    between atoms: _336  and  _338
REMARK  136  A    between atoms: _338  and  _339
REMARK  137  A    between atoms: _338  and  _341
REMARK  138  A    between atoms: _341  and  _342
REMARK  139  A    between atoms: _347  and  _348
REMARK  140  A    between atoms: _350  and  _352
REMARK  141  A    between atoms: _352  and  _353
REMARK  142  A    between atoms: _352  and  _355
REMARK  143  A    between atoms: _355  and  _356
REMARK  144  A    between atoms: _361  and  _363
REMARK  145  A    between atoms: _363  and  _364
REMARK  146  A    between atoms: _363  and  _366
REMARK  147  A    between atoms: _366  and  _367
REMARK  148  A    between atoms: _370  and  _372
REMARK  149  A    between atoms: _372  and  _373
REMARK  150  A    between atoms: _372  and  _375
REMARK  151  A    between atoms: _375  and  _376
REMARK  152  A    between atoms: _381  and  _383
REMARK  153  A    between atoms: _383  and  _384
REMARK  154  A    between atoms: _383  and  _386
REMARK  155  A    between atoms: _386  and  _387
REMARK  156  A    between atoms: _397  and  _399
REMARK  157  A    between atoms: _399  and  _400
REMARK  158  A    between atoms: _399  and  _402
REMARK  159  A    between atoms: _402  and  _403
REMARK  160  A    between atoms: _409  and  _411
REMARK  161  A    between atoms: _411  and  _412
REMARK  162  A    between atoms: _411  and  _414
REMARK  163  A    between atoms: _414  and  _415
REMARK  164  A    between atoms: _418  and  _420
REMARK  165  A    between atoms: _420  and  _421
REMARK  166  A    between atoms: _420  and  _423
REMARK  167  A    between atoms: _423  and  _424
REMARK  168  A    between atoms: _424  and  _425
REMARK  169  A    between atoms: _425  and  _426
REMARK  170  A    between atoms: _435  and  _437
REMARK  171  A    between atoms: _437  and  _438
REMARK  172  A    between atoms: _437  and  _440
REMARK  173  A    between atoms: _440  and  _441
REMARK  174  A    between atoms: _446  and  _448
REMARK  175  A    between atoms: _448  and  _449
REMARK  176  A    between atoms: _448  and  _451
REMARK  177  A    between atoms: _451  and  _452
REMARK  178  A    between atoms: _452  and  _453
REMARK  179  A    between atoms: _453  and  _454
REMARK  180  A    between atoms: _463  and  _465
REMARK  181  A    between atoms: _465  and  _466
REMARK  182  A    between atoms: _469  and  _471
REMARK  183  A    between atoms: _471  and  _472
REMARK  184  A    between atoms: _474  and  _476
REMARK  185  A    between atoms: _476  and  _477
REMARK  186  A    between atoms: _476  and  _479
REMARK  187  A    between atoms: _479  and  _480
REMARK  188  A    between atoms: _490  and  _492
REMARK  189  A    between atoms: _492  and  _493
REMARK  190  A    between atoms: _492  and  _495
REMARK  191  A    between atoms: _495  and  _496
REMARK  192  A    between atoms: _497  and  _499
REMARK  193  A    between atoms: _499  and  _500
REMARK  194  A    between atoms: _503  and  _505
REMARK  195  A    between atoms: _505  and  _506
REMARK  196  A    between atoms: _505  and  _508
REMARK  197  A    between atoms: _508  and  _509
REMARK  198  A    between atoms: _512  and  _514
REMARK  199  A    between atoms: _514  and  _515
REMARK  200  A    between atoms: _514  and  _517
REMARK  201  A    between atoms: _517  and  _518
REMARK  202  A    between atoms: _523  and  _524
REMARK  203  A    between atoms: _526  and  _528
REMARK  204  A    between atoms: _528  and  _529
REMARK  205  A    between atoms: _528  and  _531
REMARK  206  A    between atoms: _531  and  _532
REMARK  207  A    between atoms: _534  and  _536
REMARK  208  A    between atoms: _536  and  _537
REMARK  209  A    between atoms: _536  and  _539
REMARK  210  A    between atoms: _539  and  _540
REMARK  211  A    between atoms: _546  and  _548
REMARK  212  A    between atoms: _548  and  _549
REMARK  213  A    between atoms: _548  and  _551
REMARK  214  A    between atoms: _551  and  _552
REMARK  215  A    between atoms: _555  and  _557
REMARK  216  A    between atoms: _557  and  _558
REMARK  217  A    between atoms: _557  and  _560
REMARK  218  A    between atoms: _560  and  _561
REMARK  219  A    between atoms: _563  and  _565
REMARK  220  A    between atoms: _565  and  _566
REMARK  221  A    between atoms: _565  and  _568
REMARK  222  A    between atoms: _568  and  _569
REMARK  223  A    between atoms: _574  and  _576
REMARK  224  A    between atoms: _576  and  _577
REMARK  225  A    between atoms: _576  and  _579
REMARK  226  A    between atoms: _579  and  _580
REMARK  227  A    between atoms: _585  and  _587
REMARK  228  A    between atoms: _587  and  _588
REMARK  229  A    between atoms: _587  and  _590
REMARK  230  A    between atoms: _590  and  _591
REMARK  231  A    between atoms: _594  and  _596
REMARK  232  A    between atoms: _596  and  _597
REMARK  233  A    between atoms: _600  and  _602
REMARK  234  A    between atoms: _602  and  _603
REMARK  235  A    between atoms: _602  and  _605
REMARK  236  A    between atoms: _605  and  _606
REMARK  237  A    between atoms: _611  and  _612
REMARK  238  A    between atoms: _614  and  _616
REMARK  239  A    between atoms: _616  and  _617
REMARK  240  A    between atoms: _616  and  _619
REMARK  241  A    between atoms: _619  and  _620
REMARK  242  A    between atoms: _625  and  _626
REMARK  243  A    between atoms: _628  and  _630
REMARK  244  A    between atoms: _630  and  _631
REMARK  245  A    between atoms: _630  and  _633
REMARK  246  A    between atoms: _636  and  _638
REMARK  247  A    between atoms: _638  and  _639
REMARK  248  A    between atoms: _638  and  _641
REMARK  249  A    between atoms: _641  and  _642
REMARK  250  A    between atoms: _647  and  _649
REMARK  251  A    between atoms: _649  and  _650
REMARK  252  A    between atoms: _653  and  _655
REMARK  253  A    between atoms: _655  and  _656
REMARK  254  A    between atoms: _655  and  _658
REMARK  255  A    between atoms: _658  and  _659
REMARK  256  A    between atoms: _659  and  _660
REMARK  257  A    between atoms: _660  and  _661
REMARK  258  A    between atoms: _670  and  _672
REMARK  259  A    between atoms: _672  and  _673
REMARK  260  A    between atoms: _672  and  _675
REMARK  261  A    between atoms: _675  and  _676
REMARK  262  A    between atoms: _679  and  _681
REMARK  263  A    between atoms: _681  and  _682
REMARK  264  A    between atoms: _681  and  _684
REMARK  265  A    between atoms: _684  and  _685
REMARK  266  A    between atoms: _688  and  _690
REMARK  267  A    between atoms: _690  and  _691
REMARK  268  A    between atoms: _690  and  _693
REMARK  269  A    between atoms: _693  and  _694
REMARK                            x       y       z     vdW  Elec       q    Type
REMARK                         _______ _______ _______ _____ _____    ______ ____
ROOT
ATOM      1  O   HOH     1      -7.283  16.762  15.057  0.00  0.00    +0.000 OA
ENDROOT
TORSDOF 0
REMARK  Name = ../refined-set-2016/1b3f/1b3f_pocket.pdb
REMARK  269 active torsions:
REMARK  status: ('A' for Active; 'I' for Inactive)
REMARK    1  A    between atoms: _1  and  _3
REMARK    2  A    between atoms: _3  and  _4
REMARK    3  A    between atoms: _3  and  _6
REMARK    4  A    between atoms: _6  and  _7
REMARK    5  A    between atoms: _12  and  _14
REMARK    6  A    between atoms: _14  and  _15
REMARK    7  A    between atoms: _17  and  _19
REMARK    8  A    between atoms: _19  and  _20
REMARK    9  A    between atoms: _19  and  _22
REMARK   10  A    between atoms: _22  and  _23
REMARK   11  A    between atoms: _25  and  _27
REMARK   12  A    between atoms: _27  and  _28
REMARK   13  A    between atoms: _27  and  _30
REMARK   14  A    between atoms: _30  and  _31
REMARK   15  A    between atoms: _31  and  _32
REMARK   16  A    between atoms: _37  and  _39
REMARK   17  A    between atoms: _39  and  _40
REMARK   18  A    between atoms: _39  and  _42
REMARK   19  A    between atoms: _42  and  _43
REMARK   20  A    between atoms: _46  and  _48
REMARK   21  A    between atoms: _48  and  _49
REMARK   22  A    between atoms: _48  and  _51
REMARK   23  A    between atoms: _52  and  _53
REMARK   24  A    between atoms: _56  and  _58
REMARK   25  A    between atoms: _58  and  _59
REMARK   26  A    between atoms: _61  and  _63
REMARK   27  A    between atoms: _63  and  _64
REMARK   28  A    between atoms: _63  and  _66
REMARK   29  A    between atoms: _70  and  _71
REMARK   30  A    between atoms: _76  and  _78
REMARK   31  A    between atoms: _78  and  _79
REMARK   32  A    between atoms: _78  and  _81
REMARK   33  A    between atoms: _81  and  _82
REMARK   34  A    between atoms: _82  and  _83
REMARK   35  A    between atoms: _86  and  _88
REMARK   36  A    between atoms: _88  and  _89
REMARK   37  A    between atoms: _88  and  _91
REMARK   38  A    between atoms: _91  and  _92
REMARK   39  A    between atoms: _94  and  _96
REMARK   40  A    between atoms: _96  and  _97
REMARK   41  A    between atoms: _96  and  _99
REMARK   42  A    between atoms: _99  and  _100
REMARK   43  A    between atoms: _105  and  _107
REMARK   44  A    between atoms: _107  and  _108
REMARK   45  A    between atoms: _107  and  _110
REMARK   46  A    between atoms: _110  and  _111
REMARK   47  A    between atoms: _111  and  _112
REMARK   48  A    between atoms: _112  and  _113
REMARK   49  A    between atoms: _123  and  _124
REMARK   50  A    between atoms: _129  and  _131
REMARK   51  A    between atoms: _131  and  _132
REMARK   52  A    between atoms: _131  and  _134
REMARK   53  A    between atoms: _134  and  _135
REMARK   54  A    between atoms: _140  and  _141
REMARK   55  A    between atoms: _143  and  _145
REMARK   56  A    between atoms: _145  and  _146
REMARK   57  A    between atoms: _145  and  _148
REMARK   58  A    between atoms: _148  and  _149
REMARK   59  A    between atoms: _154  and  _155
REMARK   60  A    between atoms: _157  and  _159
REMARK   61  A    between atoms: _159  and  _160
REMARK   62  A    between atoms: _159  and  _162
REMARK   63  A    between atoms: _165  and  _167
REMARK   64  A    between atoms: _167  and  _168
REMARK   65  A    between atoms: _167  and  _170
REMARK   66  A    between atoms: _170  and  _171
REMARK   67  A    between atoms: _177  and  _178
REMARK   68  A    between atoms: _183  and  _185
REMARK   69  A    between atoms: _185  and  _186
REMARK   70  A    between atoms: _185  and  _188
REMARK   71  A    between atoms: _188  and  _189
REMARK   72  A    between atoms: _191  and  _193
REMARK   73  A    between atoms: _193  and  _194
REMARK   74  A    between atoms: _193  and  _196
REMARK   75  A    between atoms: _196  and  _197
REMARK   76  A    between atoms: _197  and  _198
REMARK   77  A    between atoms: _201  and  _203
REMARK   78  A    between atoms: _203  and  _204
REMARK   79  A    between atoms: _203  and  _206
REMARK   80  A    between atoms: _206  and  _207
REMARK   81  A    between atoms: _212  and  _213
REMARK   82  A    between atoms: _215  and  _217
REMARK   83  A    between atoms: _217  and  _218
REMARK   84  A    between atoms: _217  and  _220
REMARK   85  A    between atoms: _220  and  _221
REMARK   86  A    between atoms: _226  and  _228
REMARK   87  A    between atoms: _228  and  _229
REMARK   88  A    between atoms: _228  and  _231
REMARK   89  A    between atoms: _231  and  _232
REMARK   90  A    between atoms: _237  and  _239
REMARK   91  A    between atoms: _239  and  _240
REMARK   92  A    between atoms: _239  and  _242
REMARK   93  A    between atoms: _242  and  _243
REMARK   94  A    between atoms: _243  and  _244
REMARK   95  A    between atoms: _246  and  _248
REMARK   96  A    between atoms: _248  and  _249
REMARK   97  A    between atoms: _248  and  _251
REMARK   98  A    between atoms: _251  and  _252
REMARK   99  A    between atoms: _257  and  _258
REMARK  100  A    between atoms: _260  and  _262
REMARK  101  A    between atoms: _262  and  _263
REMARK  102  A    between atoms: _262  and  _265
REMARK  103  A    between atoms: _265  and  _266
REMARK  104  A    between atoms: _269  and  _271
REMARK  105  A    between atoms: _271  and  _272
REMARK  106  A    between atoms: _271  and  _274
REMARK  107  A    between atoms: _274  and  _275
REMARK  108  A    between atoms: _275  and  _496
REMARK  109  A    between atoms: _276  and  _278
REMARK  110  A    between atoms: _278  and  _279
REMARK  111  A    between atoms: _278  and  _281
REMARK  112  A    between atoms: _281  and  _282
REMARK  113  A    between atoms: _285  and  _287
REMARK  114  A    between atoms: _287  and  _288
REMARK  115  A    between atoms: _287  and  _290
REMARK  116  A    between atoms: _290  and  _291
REMARK  117  A    between atoms: _296  and  _297
REMARK  118  A    between atoms: _299  and  _301
REMARK  119  A    between atoms: _301  and  _302
REMARK  120  A    between atoms: _301  and  _304
REMARK  121  A    between atoms: _304  and  _305
REMARK  122  A    between atoms: _310  and  _311
REMARK  123  A    between atoms: _313  and  _315
REMARK  124  A    between atoms: _315  and  _316
REMARK  125  A    between atoms: _315  and  _318
REMARK  126  A    between atoms: _318  and  _319
REMARK  127  A    between atoms: _319  and  _320
REMARK  128  A    between atoms: _323  and  _325
REMARK  129  A    between atoms: _325  and  _326
REMARK  130  A    between atoms: _325  and  _328
REMARK  131  A    between atoms: _328  and  _329
REMARK  132  A    between atoms: _329  and  _330
REMARK  133  A    between atoms: _330  and  _331
REMARK  134  A    between atoms: _331  and  _332
REMARK  135  A    between atoms: _336  and  _338
REMARK  136  A    between atoms: _338  and  _339
REMARK  137  A    between atoms: _338  and  _341
REMARK  138  A    between atoms: _341  and  _342
REMARK  139  A    between atoms: _347  and  _348
REMARK  140  A    between atoms: _350  and  _352
REMARK  141  A    between atoms: _352  and  _353
REMARK  142  A    between atoms: _352  and  _355
REMARK  143  A    between atoms: _355  and  _356
REMARK  144  A    between atoms: _361  and  _363
REMARK  145  A    between atoms: _363  and  _364
REMARK  146  A    between atoms: _363  and  _366
REMARK  147  A    between atoms: _366  and  _367
REMARK  148  A    between atoms: _370  and  _372
REMARK  149  A    between atoms: _372  and  _373
REMARK  150  A    between atoms: _372  and  _375
REMARK  151  A    between atoms: _375  and  _376
REMARK  152  A    between atoms: _381  and  _383
REMARK  153  A    between atoms: _383  and  _384
REMARK  154  A    between atoms: _383  and  _386
REMARK  155  A    between atoms: _386  and  _387
REMARK  156  A    between atoms: _397  and  _399
REMARK  157  A    between atoms: _399  and  _400
REMARK  158  A    between atoms: _399  and  _402
REMARK  159  A    between atoms: _402  and  _403
REMARK  160  A    between atoms: _409  and  _411
REMARK  161  A    between atoms: _411  and  _412
REMARK  162  A    between atoms: _411  and  _414
REMARK  163  A    between atoms: _414  and  _415
REMARK  164  A    between atoms: _418  and  _420
REMARK  165  A    between atoms: _420  and  _421
REMARK  166  A    between atoms: _420  and  _423
REMARK  167  A    between atoms: _423  and  _424
REMARK  168  A    between atoms: _424  and  _425
REMARK  169  A    between atoms: _425  and  _426
REMARK  170  A    between atoms: _435  and  _437
REMARK  171  A    between atoms: _437  and  _438
REMARK  172  A    between atoms: _437  and  _440
REMARK  173  A    between atoms: _440  and  _441
REMARK  174  A    between atoms: _446  and  _448
REMARK  175  A    between atoms: _448  and  _449
REMARK  176  A    between atoms: _448  and  _451
REMARK  177  A    between atoms: _451  and  _452
REMARK  178  A    between atoms: _452  and  _453
REMARK  179  A    between atoms: _453  and  _454
REMARK  180  A    between atoms: _463  and  _465
REMARK  181  A    between atoms: _465  and  _466
REMARK  182  A    between atoms: _469  and  _471
REMARK  183  A    between atoms: _471  and  _472
REMARK  184  A    between atoms: _474  and  _476
REMARK  185  A    between atoms: _476  and  _477
REMARK  186  A    between atoms: _476  and  _479
REMARK  187  A    between atoms: _479  and  _480
REMARK  188  A    between atoms: _490  and  _492
REMARK  189  A    between atoms: _492  and  _493
REMARK  190  A    between atoms: _492  and  _495
REMARK  191  A    between atoms: _495  and  _496
REMARK  192  A    between atoms: _497  and  _499
REMARK  193  A    between atoms: _499  and  _500
REMARK  194  A    between atoms: _503  and  _505
REMARK  195  A    between atoms: _505  and  _506
REMARK  196  A    between atoms: _505  and  _508
REMARK  197  A    between atoms: _508  and  _509
REMARK  198  A    between atoms: _512  and  _514
REMARK  199  A    between atoms: _514  and  _515
REMARK  200  A    between atoms: _514  and  _517
REMARK  201  A    between atoms: _517  and  _518
REMARK  202  A    between atoms: _523  and  _524
REMARK  203  A    between atoms: _526  and  _528
REMARK  204  A    between atoms: _528  and  _529
REMARK  205  A    between atoms: _528  and  _531
REMARK  206  A    between atoms: _531  and  _532
REMARK  207  A    between atoms: _534  and  _536
REMARK  208  A    between atoms: _536  and  _537
REMARK  209  A    between atoms: _536  and  _539
REMARK  210  A    between atoms: _539  and  _540
REMARK  211  A    between atoms: _546  and  _548
REMARK  212  A    between atoms: _548  and  _549
REMARK  213  A    between atoms: _548  and  _551
REMARK  214  A    between atoms: _551  and  _552
REMARK  215  A    between atoms: _555  and  _557
REMARK  216  A    between atoms: _557  and  _558
REMARK  217  A    between atoms: _557  and  _560
REMARK  218  A    between atoms: _560  and  _561
REMARK  219  A    between atoms: _563  and  _565
REMARK  220  A    between atoms: _565  and  _566
REMARK  221  A    between atoms: _565  and  _568
REMARK  222  A    between atoms: _568  and  _569
REMARK  223  A    between atoms: _574  and  _576
REMARK  224  A    between atoms: _576  and  _577
REMARK  225  A    between atoms: _576  and  _579
REMARK  226  A    between atoms: _579  and  _580
REMARK  227  A    between atoms: _585  and  _587
REMARK  228  A    between atoms: _587  and  _588
REMARK  229  A    between atoms: _587  and  _590
REMARK  230  A    between atoms: _590  and  _591
REMARK  231  A    between atoms: _594  and  _596
REMARK  232  A    between atoms: _596  and  _597
REMARK  233  A    between atoms: _600  and  _602
REMARK  234  A    between atoms: _602  and  _603
REMARK  235  A    between atoms: _602  and  _605
REMARK  236  A    between atoms: _605  and  _606
REMARK  237  A    between atoms: _611  and  _612
REMARK  238  A    between atoms: _614  and  _616
REMARK  239  A    between atoms: _616  and  _617
REMARK  240  A    between atoms: _616  and  _619
REMARK  241  A    between atoms: _619  and  _620
REMARK  242  A    between atoms: _625  and  _626
REMARK  243  A    between atoms: _628  and  _630
REMARK  244  A    between atoms: _630  and  _631
REMARK  245  A    between atoms: _630  and  _633
REMARK  246  A    between atoms: _636  and  _638
REMARK  247  A    between atoms: _638  and  _639
REMARK  248  A    between atoms: _638  and  _641
REMARK  249  A    between atoms: _641  and  _642
REMARK  250  A    between atoms: _647  and  _649
REMARK  251  A    between atoms: _649  and  _650
REMARK  252  A    between atoms: _653  and  _655
REMARK  253  A    between atoms: _655  and  _656
REMARK  254  A    between atoms: _655  and  _658
REMARK  255  A    between atoms: _658  and  _659
REMARK  256  A    between atoms: _659  and  _660
REMARK  257  A    between atoms: _660  and  _661
REMARK  258  A    between atoms: _670  and  _672
REMARK  259  A    between atoms: _672  and  _673
REMARK  260  A    between atoms: _672  and  _675
REMARK  261  A    between atoms: _675  and  _676
REMARK  262  A    between atoms: _679  and  _681
REMARK  263  A    between atoms: _681  and  _682
REMARK  264  A    between atoms: _681  and  _684
REMARK  265  A    between atoms: _684  and  _685
REMARK  266  A    between atoms: _688  and  _690
REMARK  267  A    between atoms: _690  and  _691
REMARK  268  A    between atoms: _690  and  _693
REMARK  269  A    between atoms: _693  and  _694
REMARK                            x       y       z     vdW  Elec       q    Type
REMARK                         _______ _______ _______ _____ _____    ______ ____
ROOT
ATOM      1  O   HOH     1      -6.037  14.522  13.670  0.00  0.00    +0.000 OA
ENDROOT
TORSDOF 0
REMARK  Name = ../refined-set-2016/1b3f/1b3f_pocket.pdb
REMARK  269 active torsions:
REMARK  status: ('A' for Active; 'I' for Inactive)
REMARK    1  A    between atoms: _1  and  _3
REMARK    2  A    between atoms: _3  and  _4
REMARK    3  A    between atoms: _3  and  _6
REMARK    4  A    between atoms: _6  and  _7
REMARK    5  A    between atoms: _12  and  _14
REMARK    6  A    between atoms: _14  and  _15
REMARK    7  A    between atoms: _17  and  _19
REMARK    8  A    between atoms: _19  and  _20
REMARK    9  A    between atoms: _19  and  _22
REMARK   10  A    between atoms: _22  and  _23
REMARK   11  A    between atoms: _25  and  _27
REMARK   12  A    between atoms: _27  and  _28
REMARK   13  A    between atoms: _27  and  _30
REMARK   14  A    between atoms: _30  and  _31
REMARK   15  A    between atoms: _31  and  _32
REMARK   16  A    between atoms: _37  and  _39
REMARK   17  A    between atoms: _39  and  _40
REMARK   18  A    between atoms: _39  and  _42
REMARK   19  A    between atoms: _42  and  _43
REMARK   20  A    between atoms: _46  and  _48
REMARK   21  A    between atoms: _48  and  _49
REMARK   22  A    between atoms: _48  and  _51
REMARK   23  A    between atoms: _52  and  _53
REMARK   24  A    between atoms: _56  and  _58
REMARK   25  A    between atoms: _58  and  _59
REMARK   26  A    between atoms: _61  and  _63
REMARK   27  A    between atoms: _63  and  _64
REMARK   28  A    between atoms: _63  and  _66
REMARK   29  A    between atoms: _70  and  _71
REMARK   30  A    between atoms: _76  and  _78
REMARK   31  A    between atoms: _78  and  _79
REMARK   32  A    between atoms: _78  and  _81
REMARK   33  A    between atoms: _81  and  _82
REMARK   34  A    between atoms: _82  and  _83
REMARK   35  A    between atoms: _86  and  _88
REMARK   36  A    between atoms: _88  and  _89
REMARK   37  A    between atoms: _88  and  _91
REMARK   38  A    between atoms: _91  and  _92
REMARK   39  A    between atoms: _94  and  _96
REMARK   40  A    between atoms: _96  and  _97
REMARK   41  A    between atoms: _96  and  _99
REMARK   42  A    between atoms: _99  and  _100
REMARK   43  A    between atoms: _105  and  _107
REMARK   44  A    between atoms: _107  and  _108
REMARK   45  A    between atoms: _107  and  _110
REMARK   46  A    between atoms: _110  and  _111
REMARK   47  A    between atoms: _111  and  _112
REMARK   48  A    between atoms: _112  and  _113
REMARK   49  A    between atoms: _123  and  _124
REMARK   50  A    between atoms: _129  and  _131
REMARK   51  A    between atoms: _131  and  _132
REMARK   52  A    between atoms: _131  and  _134
REMARK   53  A    between atoms: _134  and  _135
REMARK   54  A    between atoms: _140  and  _141
REMARK   55  A    between atoms: _143  and  _145
REMARK   56  A    between atoms: _145  and  _146
REMARK   57  A    between atoms: _145  and  _148
REMARK   58  A    between atoms: _148  and  _149
REMARK   59  A    between atoms: _154  and  _155
REMARK   60  A    between atoms: _157  and  _159
REMARK   61  A    between atoms: _159  and  _160
REMARK   62  A    between atoms: _159  and  _162
REMARK   63  A    between atoms: _165  and  _167
REMARK   64  A    between atoms: _167  and  _168
REMARK   65  A    between atoms: _167  and  _170
REMARK   66  A    between atoms: _170  and  _171
REMARK   67  A    between atoms: _177  and  _178
REMARK   68  A    between atoms: _183  and  _185
REMARK   69  A    between atoms: _185  and  _186
REMARK   70  A    between atoms: _185  and  _188
REMARK   71  A    between atoms: _188  and  _189
REMARK   72  A    between atoms: _191  and  _193
REMARK   73  A    between atoms: _193  and  _194
REMARK   74  A    between atoms: _193  and  _196
REMARK   75  A    between atoms: _196  and  _197
REMARK   76  A    between atoms: _197  and  _198
REMARK   77  A    between atoms: _201  and  _203
REMARK   78  A    between atoms: _203  and  _204
REMARK   79  A    between atoms: _203  and  _206
REMARK   80  A    between atoms: _206  and  _207
REMARK   81  A    between atoms: _212  and  _213
REMARK   82  A    between atoms: _215  and  _217
REMARK   83  A    between atoms: _217  and  _218
REMARK   84  A    between atoms: _217  and  _220
REMARK   85  A    between atoms: _220  and  _221
REMARK   86  A    between atoms: _226  and  _228
REMARK   87  A    between atoms: _228  and  _229
REMARK   88  A    between atoms: _228  and  _231
REMARK   89  A    between atoms: _231  and  _232
REMARK   90  A    between atoms: _237  and  _239
REMARK   91  A    between atoms: _239  and  _240
REMARK   92  A    between atoms: _239  and  _242
REMARK   93  A    between atoms: _242  and  _243
REMARK   94  A    between atoms: _243  and  _244
REMARK   95  A    between atoms: _246  and  _248
REMARK   96  A    between atoms: _248  and  _249
REMARK   97  A    between atoms: _248  and  _251
REMARK   98  A    between atoms: _251  and  _252
REMARK   99  A    between atoms: _257  and  _258
REMARK  100  A    between atoms: _260  and  _262
REMARK  101  A    between atoms: _262  and  _263
REMARK  102  A    between atoms: _262  and  _265
REMARK  103  A    between atoms: _265  and  _266
REMARK  104  A    between atoms: _269  and  _271
REMARK  105  A    between atoms: _271  and  _272
REMARK  106  A    between atoms: _271  and  _274
REMARK  107  A    between atoms: _274  and  _275
REMARK  108  A    between atoms: _275  and  _496
REMARK  109  A    between atoms: _276  and  _278
REMARK  110  A    between atoms: _278  and  _279
REMARK  111  A    between atoms: _278  and  _281
REMARK  112  A    between atoms: _281  and  _282
REMARK  113  A    between atoms: _285  and  _287
REMARK  114  A    between atoms: _287  and  _288
REMARK  115  A    between atoms: _287  and  _290
REMARK  116  A    between atoms: _290  and  _291
REMARK  117  A    between atoms: _296  and  _297
REMARK  118  A    between atoms: _299  and  _301
REMARK  119  A    between atoms: _301  and  _302
REMARK  120  A    between atoms: _301  and  _304
REMARK  121  A    between atoms: _304  and  _305
REMARK  122  A    between atoms: _310  and  _311
REMARK  123  A    between atoms: _313  and  _315
REMARK  124  A    between atoms: _315  and  _316
REMARK  125  A    between atoms: _315  and  _318
REMARK  126  A    between atoms: _318  and  _319
REMARK  127  A    between atoms: _319  and  _320
REMARK  128  A    between atoms: _323  and  _325
REMARK  129  A    between atoms: _325  and  _326
REMARK  130  A    between atoms: _325  and  _328
REMARK  131  A    between atoms: _328  and  _329
REMARK  132  A    between atoms: _329  and  _330
REMARK  133  A    between atoms: _330  and  _331
REMARK  134  A    between atoms: _331  and  _332
REMARK  135  A    between atoms: _336  and  _338
REMARK  136  A    between atoms: _338  and  _339
REMARK  137  A    between atoms: _338  and  _341
REMARK  138  A    between atoms: _341  and  _342
REMARK  139  A    between atoms: _347  and  _348
REMARK  140  A    between atoms: _350  and  _352
REMARK  141  A    between atoms: _352  and  _353
REMARK  142  A    between atoms: _352  and  _355
REMARK  143  A    between atoms: _355  and  _356
REMARK  144  A    between atoms: _361  and  _363
REMARK  145  A    between atoms: _363  and  _364
REMARK  146  A    between atoms: _363  and  _366
REMARK  147  A    between atoms: _366  and  _367
REMARK  148  A    between atoms: _370  and  _372
REMARK  149  A    between atoms: _372  and  _373
REMARK  150  A    between atoms: _372  and  _375
REMARK  151  A    between atoms: _375  and  _376
REMARK  152  A    between atoms: _381  and  _383
REMARK  153  A    between atoms: _383  and  _384
REMARK  154  A    between atoms: _383  and  _386
REMARK  155  A    between atoms: _386  and  _387
REMARK  156  A    between atoms: _397  and  _399
REMARK  157  A    between atoms: _399  and  _400
REMARK  158  A    between atoms: _399  and  _402
REMARK  159  A    between atoms: _402  and  _403
REMARK  160  A    between atoms: _409  and  _411
REMARK  161  A    between atoms: _411  and  _412
REMARK  162  A    between atoms: _411  and  _414
REMARK  163  A    between atoms: _414  and  _415
REMARK  164  A    between atoms: _418  and  _420
REMARK  165  A    between atoms: _420  and  _421
REMARK  166  A    between atoms: _420  and  _423
REMARK  167  A    between atoms: _423  and  _424
REMARK  168  A    between atoms: _424  and  _425
REMARK  169  A    between atoms: _425  and  _426
REMARK  170  A    between atoms: _435  and  _437
REMARK  171  A    between atoms: _437  and  _438
REMARK  172  A    between atoms: _437  and  _440
REMARK  173  A    between atoms: _440  and  _441
REMARK  174  A    between atoms: _446  and  _448
REMARK  175  A    between atoms: _448  and  _449
REMARK  176  A    between atoms: _448  and  _451
REMARK  177  A    between atoms: _451  and  _452
REMARK  178  A    between atoms: _452  and  _453
REMARK  179  A    between atoms: _453  and  _454
REMARK  180  A    between atoms: _463  and  _465
REMARK  181  A    between atoms: _465  and  _466
REMARK  182  A    between atoms: _469  and  _471
REMARK  183  A    between atoms: _471  and  _472
REMARK  184  A    between atoms: _474  and  _476
REMARK  185  A    between atoms: _476  and  _477
REMARK  186  A    between atoms: _476  and  _479
REMARK  187  A    between atoms: _479  and  _480
REMARK  188  A    between atoms: _490  and  _492
REMARK  189  A    between atoms: _492  and  _493
REMARK  190  A    between atoms: _492  and  _495
REMARK  191  A    between atoms: _495  and  _496
REMARK  192  A    between atoms: _497  and  _499
REMARK  193  A    between atoms: _499  and  _500
REMARK  194  A    between atoms: _503  and  _505
REMARK  195  A    between atoms: _505  and  _506
REMARK  196  A    between atoms: _505  and  _508
REMARK  197  A    between atoms: _508  and  _509
REMARK  198  A    between atoms: _512  and  _514
REMARK  199  A    between atoms: _514  and  _515
REMARK  200  A    between atoms: _514  and  _517
REMARK  201  A    between atoms: _517  and  _518
REMARK  202  A    between atoms: _523  and  _524
REMARK  203  A    between atoms: _526  and  _528
REMARK  204  A    between atoms: _528  and  _529
REMARK  205  A    between atoms: _528  and  _531
REMARK  206  A    between atoms: _531  and  _532
REMARK  207  A    between atoms: _534  and  _536
REMARK  208  A    between atoms: _536  and  _537
REMARK  209  A    between atoms: _536  and  _539
REMARK  210  A    between atoms: _539  and  _540
REMARK  211  A    between atoms: _546  and  _548
REMARK  212  A    between atoms: _548  and  _549
REMARK  213  A    between atoms: _548  and  _551
REMARK  214  A    between atoms: _551  and  _552
REMARK  215  A    between atoms: _555  and  _557
REMARK  216  A    between atoms: _557  and  _558
REMARK  217  A    between atoms: _557  and  _560
REMARK  218  A    between atoms: _560  and  _561
REMARK  219  A    between atoms: _563  and  _565
REMARK  220  A    between atoms: _565  and  _566
REMARK  221  A    between atoms: _565  and  _568
REMARK  222  A    between atoms: _568  and  _569
REMARK  223  A    between atoms: _574  and  _576
REMARK  224  A    between atoms: _576  and  _577
REMARK  225  A    between atoms: _576  and  _579
REMARK  226  A    between atoms: _579  and  _580
REMARK  227  A    between atoms: _585  and  _587
REMARK  228  A    between atoms: _587  and  _588
REMARK  229  A    between atoms: _587  and  _590
REMARK  230  A    between atoms: _590  and  _591
REMARK  231  A    between atoms: _594  and  _596
REMARK  232  A    between atoms: _596  and  _597
REMARK  233  A    between atoms: _600  and  _602
REMARK  234  A    between atoms: _602  and  _603
REMARK  235  A    between atoms: _602  and  _605
REMARK  236  A    between atoms: _605  and  _606
REMARK  237  A    between atoms: _611  and  _612
REMARK  238  A    between atoms: _614  and  _616
REMARK  239  A    between atoms: _616  and  _617
REMARK  240  A    between atoms: _616  and  _619
REMARK  241  A    between atoms: _619  and  _620
REMARK  242  A    between atoms: _625  and  _626
REMARK  243  A    between atoms: _628  and  _630
REMARK  244  A    between atoms: _630  and  _631
REMARK  245  A    between atoms: _630  and  _633
REMARK  246  A    between atoms: _636  and  _638
REMARK  247  A    between atoms: _638  and  _639
REMARK  248  A    between atoms: _638  and  _641
REMARK  249  A    between atoms: _641  and  _642
REMARK  250  A    between atoms: _647  and  _649
REMARK  251  A    between atoms: _649  and  _650
REMARK  252  A    between atoms: _653  and  _655
REMARK  253  A    between atoms: _655  and  _656
REMARK  254  A    between atoms: _655  and  _658
REMARK  255  A    between atoms: _658  and  _659
REMARK  256  A    between atoms: _659  and  _660
REMARK  257  A    between atoms: _660  and  _661
REMARK  258  A    between atoms: _670  and  _672
REMARK  259  A    between atoms: _672  and  _673
REMARK  260  A    between atoms: _672  and  _675
REMARK  261  A    between atoms: _675  and  _676
REMARK  262  A    between atoms: _679  and  _681
REMARK  263  A    between atoms: _681  and  _682
REMARK  264  A    between atoms: _681  and  _684
REMARK  265  A    between atoms: _684  and  _685
REMARK  266  A    between atoms: _688  and  _690
REMARK  267  A    between atoms: _690  and  _691
REMARK  268  A    between atoms: _690  and  _693
REMARK  269  A    between atoms: _693  and  _694
REMARK                            x       y       z     vdW  Elec       q    Type
REMARK                         _______ _______ _______ _____ _____    ______ ____
ROOT
ATOM      1  O   HOH     1      11.712  26.474  23.468  0.00  0.00    +0.000 OA
ENDROOT
TORSDOF 0
REMARK  Name = ../refined-set-2016/1b3f/1b3f_pocket.pdb
REMARK  269 active torsions:
REMARK  status: ('A' for Active; 'I' for Inactive)
REMARK    1  A    between atoms: _1  and  _3
REMARK    2  A    between atoms: _3  and  _4
REMARK    3  A    between atoms: _3  and  _6
REMARK    4  A    between atoms: _6  and  _7
REMARK    5  A    between atoms: _12  and  _14
REMARK    6  A    between atoms: _14  and  _15
REMARK    7  A    between atoms: _17  and  _19
REMARK    8  A    between atoms: _19  and  _20
REMARK    9  A    between atoms: _19  and  _22
REMARK   10  A    between atoms: _22  and  _23
REMARK   11  A    between atoms: _25  and  _27
REMARK   12  A    between atoms: _27  and  _28
REMARK   13  A    between atoms: _27  and  _30
REMARK   14  A    between atoms: _30  and  _31
REMARK   15  A    between atoms: _31  and  _32
REMARK   16  A    between atoms: _37  and  _39
REMARK   17  A    between atoms: _39  and  _40
REMARK   18  A    between atoms: _39  and  _42
REMARK   19  A    between atoms: _42  and  _43
REMARK   20  A    between atoms: _46  and  _48
REMARK   21  A    between atoms: _48  and  _49
REMARK   22  A    between atoms: _48  and  _51
REMARK   23  A    between atoms: _52  and  _53
REMARK   24  A    between atoms: _56  and  _58
REMARK   25  A    between atoms: _58  and  _59
REMARK   26  A    between atoms: _61  and  _63
REMARK   27  A    between atoms: _63  and  _64
REMARK   28  A    between atoms: _63  and  _66
REMARK   29  A    between atoms: _70  and  _71
REMARK   30  A    between atoms: _76  and  _78
REMARK   31  A    between atoms: _78  and  _79
REMARK   32  A    between atoms: _78  and  _81
REMARK   33  A    between atoms: _81  and  _82
REMARK   34  A    between atoms: _82  and  _83
REMARK   35  A    between atoms: _86  and  _88
REMARK   36  A    between atoms: _88  and  _89
REMARK   37  A    between atoms: _88  and  _91
REMARK   38  A    between atoms: _91  and  _92
REMARK   39  A    between atoms: _94  and  _96
REMARK   40  A    between atoms: _96  and  _97
REMARK   41  A    between atoms: _96  and  _99
REMARK   42  A    between atoms: _99  and  _100
REMARK   43  A    between atoms: _105  and  _107
REMARK   44  A    between atoms: _107  and  _108
REMARK   45  A    between atoms: _107  and  _110
REMARK   46  A    between atoms: _110  and  _111
REMARK   47  A    between atoms: _111  and  _112
REMARK   48  A    between atoms: _112  and  _113
REMARK   49  A    between atoms: _123  and  _124
REMARK   50  A    between atoms: _129  and  _131
REMARK   51  A    between atoms: _131  and  _132
REMARK   52  A    between atoms: _131  and  _134
REMARK   53  A    between atoms: _134  and  _135
REMARK   54  A    between atoms: _140  and  _141
REMARK   55  A    between atoms: _143  and  _145
REMARK   56  A    between atoms: _145  and  _146
REMARK   57  A    between atoms: _145  and  _148
REMARK   58  A    between atoms: _148  and  _149
REMARK   59  A    between atoms: _154  and  _155
REMARK   60  A    between atoms: _157  and  _159
REMARK   61  A    between atoms: _159  and  _160
REMARK   62  A    between atoms: _159  and  _162
REMARK   63  A    between atoms: _165  and  _167
REMARK   64  A    between atoms: _167  and  _168
REMARK   65  A    between atoms: _167  and  _170
REMARK   66  A    between atoms: _170  and  _171
REMARK   67  A    between atoms: _177  and  _178
REMARK   68  A    between atoms: _183  and  _185
REMARK   69  A    between atoms: _185  and  _186
REMARK   70  A    between atoms: _185  and  _188
REMARK   71  A    between atoms: _188  and  _189
REMARK   72  A    between atoms: _191  and  _193
REMARK   73  A    between atoms: _193  and  _194
REMARK   74  A    between atoms: _193  and  _196
REMARK   75  A    between atoms: _196  and  _197
REMARK   76  A    between atoms: _197  and  _198
REMARK   77  A    between atoms: _201  and  _203
REMARK   78  A    between atoms: _203  and  _204
REMARK   79  A    between atoms: _203  and  _206
REMARK   80  A    between atoms: _206  and  _207
REMARK   81  A    between atoms: _212  and  _213
REMARK   82  A    between atoms: _215  and  _217
REMARK   83  A    between atoms: _217  and  _218
REMARK   84  A    between atoms: _217  and  _220
REMARK   85  A    between atoms: _220  and  _221
REMARK   86  A    between atoms: _226  and  _228
REMARK   87  A    between atoms: _228  and  _229
REMARK   88  A    between atoms: _228  and  _231
REMARK   89  A    between atoms: _231  and  _232
REMARK   90  A    between atoms: _237  and  _239
REMARK   91  A    between atoms: _239  and  _240
REMARK   92  A    between atoms: _239  and  _242
REMARK   93  A    between atoms: _242  and  _243
REMARK   94  A    between atoms: _243  and  _244
REMARK   95  A    between atoms: _246  and  _248
REMARK   96  A    between atoms: _248  and  _249
REMARK   97  A    between atoms: _248  and  _251
REMARK   98  A    between atoms: _251  and  _252
REMARK   99  A    between atoms: _257  and  _258
REMARK  100  A    between atoms: _260  and  _262
REMARK  101  A    between atoms: _262  and  _263
REMARK  102  A    between atoms: _262  and  _265
REMARK  103  A    between atoms: _265  and  _266
REMARK  104  A    between atoms: _269  and  _271
REMARK  105  A    between atoms: _271  and  _272
REMARK  106  A    between atoms: _271  and  _274
REMARK  107  A    between atoms: _274  and  _275
REMARK  108  A    between atoms: _275  and  _496
REMARK  109  A    between atoms: _276  and  _278
REMARK  110  A    between atoms: _278  and  _279
REMARK  111  A    between atoms: _278  and  _281
REMARK  112  A    between atoms: _281  and  _282
REMARK  113  A    between atoms: _285  and  _287
REMARK  114  A    between atoms: _287  and  _288
REMARK  115  A    between atoms: _287  and  _290
REMARK  116  A    between atoms: _290  and  _291
REMARK  117  A    between atoms: _296  and  _297
REMARK  118  A    between atoms: _299  and  _301
REMARK  119  A    between atoms: _301  and  _302
REMARK  120  A    between atoms: _301  and  _304
REMARK  121  A    between atoms: _304  and  _305
REMARK  122  A    between atoms: _310  and  _311
REMARK  123  A    between atoms: _313  and  _315
REMARK  124  A    between atoms: _315  and  _316
REMARK  125  A    between atoms: _315  and  _318
REMARK  126  A    between atoms: _318  and  _319
REMARK  127  A    between atoms: _319  and  _320
REMARK  128  A    between atoms: _323  and  _325
REMARK  129  A    between atoms: _325  and  _326
REMARK  130  A    between atoms: _325  and  _328
REMARK  131  A    between atoms: _328  and  _329
REMARK  132  A    between atoms: _329  and  _330
REMARK  133  A    between atoms: _330  and  _331
REMARK  134  A    between atoms: _331  and  _332
REMARK  135  A    between atoms: _336  and  _338
REMARK  136  A    between atoms: _338  and  _339
REMARK  137  A    between atoms: _338  and  _341
REMARK  138  A    between atoms: _341  and  _342
REMARK  139  A    between atoms: _347  and  _348
REMARK  140  A    between atoms: _350  and  _352
REMARK  141  A    between atoms: _352  and  _353
REMARK  142  A    between atoms: _352  and  _355
REMARK  143  A    between atoms: _355  and  _356
REMARK  144  A    between atoms: _361  and  _363
REMARK  145  A    between atoms: _363  and  _364
REMARK  146  A    between atoms: _363  and  _366
REMARK  147  A    between atoms: _366  and  _367
REMARK  148  A    between atoms: _370  and  _372
REMARK  149  A    between atoms: _372  and  _373
REMARK  150  A    between atoms: _372  and  _375
REMARK  151  A    between atoms: _375  and  _376
REMARK  152  A    between atoms: _381  and  _383
REMARK  153  A    between atoms: _383  and  _384
REMARK  154  A    between atoms: _383  and  _386
REMARK  155  A    between atoms: _386  and  _387
REMARK  156  A    between atoms: _397  and  _399
REMARK  157  A    between atoms: _399  and  _400
REMARK  158  A    between atoms: _399  and  _402
REMARK  159  A    between atoms: _402  and  _403
REMARK  160  A    between atoms: _409  and  _411
REMARK  161  A    between atoms: _411  and  _412
REMARK  162  A    between atoms: _411  and  _414
REMARK  163  A    between atoms: _414  and  _415
REMARK  164  A    between atoms: _418  and  _420
REMARK  165  A    between atoms: _420  and  _421
REMARK  166  A    between atoms: _420  and  _423
REMARK  167  A    between atoms: _423  and  _424
REMARK  168  A    between atoms: _424  and  _425
REMARK  169  A    between atoms: _425  and  _426
REMARK  170  A    between atoms: _435  and  _437
REMARK  171  A    between atoms: _437  and  _438
REMARK  172  A    between atoms: _437  and  _440
REMARK  173  A    between atoms: _440  and  _441
REMARK  174  A    between atoms: _446  and  _448
REMARK  175  A    between atoms: _448  and  _449
REMARK  176  A    between atoms: _448  and  _451
REMARK  177  A    between atoms: _451  and  _452
REMARK  178  A    between atoms: _452  and  _453
REMARK  179  A    between atoms: _453  and  _454
REMARK  180  A    between atoms: _463  and  _465
REMARK  181  A    between atoms: _465  and  _466
REMARK  182  A    between atoms: _469  and  _471
REMARK  183  A    between atoms: _471  and  _472
REMARK  184  A    between atoms: _474  and  _476
REMARK  185  A    between atoms: _476  and  _477
REMARK  186  A    between atoms: _476  and  _479
REMARK  187  A    between atoms: _479  and  _480
REMARK  188  A    between atoms: _490  and  _492
REMARK  189  A    between atoms: _492  and  _493
REMARK  190  A    between atoms: _492  and  _495
REMARK  191  A    between atoms: _495  and  _496
REMARK  192  A    between atoms: _497  and  _499
REMARK  193  A    between atoms: _499  and  _500
REMARK  194  A    between atoms: _503  and  _505
REMARK  195  A    between atoms: _505  and  _506
REMARK  196  A    between atoms: _505  and  _508
REMARK  197  A    between atoms: _508  and  _509
REMARK  198  A    between atoms: _512  and  _514
REMARK  199  A    between atoms: _514  and  _515
REMARK  200  A    between atoms: _514  and  _517
REMARK  201  A    between atoms: _517  and  _518
REMARK  202  A    between atoms: _523  and  _524
REMARK  203  A    between atoms: _526  and  _528
REMARK  204  A    between atoms: _528  and  _529
REMARK  205  A    between atoms: _528  and  _531
REMARK  206  A    between atoms: _531  and  _532
REMARK  207  A    between atoms: _534  and  _536
REMARK  208  A    between atoms: _536  and  _537
REMARK  209  A    between atoms: _536  and  _539
REMARK  210  A    between atoms: _539  and  _540
REMARK  211  A    between atoms: _546  and  _548
REMARK  212  A    between atoms: _548  and  _549
REMARK  213  A    between atoms: _548  and  _551
REMARK  214  A    between atoms: _551  and  _552
REMARK  215  A    between atoms: _555  and  _557
REMARK  216  A    between atoms: _557  and  _558
REMARK  217  A    between atoms: _557  and  _560
REMARK  218  A    between atoms: _560  and  _561
REMARK  219  A    between atoms: _563  and  _565
REMARK  220  A    between atoms: _565  and  _566
REMARK  221  A    between atoms: _565  and  _568
REMARK  222  A    between atoms: _568  and  _569
REMARK  223  A    between atoms: _574  and  _576
REMARK  224  A    between atoms: _576  and  _577
REMARK  225  A    between atoms: _576  and  _579
REMARK  226  A    between atoms: _579  and  _580
REMARK  227  A    between atoms: _585  and  _587
REMARK  228  A    between atoms: _587  and  _588
REMARK  229  A    between atoms: _587  and  _590
REMARK  230  A    between atoms: _590  and  _591
REMARK  231  A    between atoms: _594  and  _596
REMARK  232  A    between atoms: _596  and  _597
REMARK  233  A    between atoms: _600  and  _602
REMARK  234  A    between atoms: _602  and  _603
REMARK  235  A    between atoms: _602  and  _605
REMARK  236  A    between atoms: _605  and  _606
REMARK  237  A    between atoms: _611  and  _612
REMARK  238  A    between atoms: _614  and  _616
REMARK  239  A    between atoms: _616  and  _617
REMARK  240  A    between atoms: _616  and  _619
REMARK  241  A    between atoms: _619  and  _620
REMARK  242  A    between atoms: _625  and  _626
REMARK  243  A    between atoms: _628  and  _630
REMARK  244  A    between atoms: _630  and  _631
REMARK  245  A    between atoms: _630  and  _633
REMARK  246  A    between atoms: _636  and  _638
REMARK  247  A    between atoms: _638  and  _639
REMARK  248  A    between atoms: _638  and  _641
REMARK  249  A    between atoms: _641  and  _642
REMARK  250  A    between atoms: _647  and  _649
REMARK  251  A    between atoms: _649  and  _650
REMARK  252  A    between atoms: _653  and  _655
REMARK  253  A    between atoms: _655  and  _656
REMARK  254  A    between atoms: _655  and  _658
REMARK  255  A    between atoms: _658  and  _659
REMARK  256  A    between atoms: _659  and  _660
REMARK  257  A    between atoms: _660  and  _661
REMARK  258  A    between atoms: _670  and  _672
REMARK  259  A    between atoms: _672  and  _673
REMARK  260  A    between atoms: _672  and  _675
REMARK  261  A    between atoms: _675  and  _676
REMARK  262  A    between atoms: _679  and  _681
REMARK  263  A    between atoms: _681  and  _682
REMARK  264  A    between atoms: _681  and  _684
REMARK  265  A    between atoms: _684  and  _685
REMARK  266  A    between atoms: _688  and  _690
REMARK  267  A    between atoms: _690  and  _691
REMARK  268  A    between atoms: _690  and  _693
REMARK  269  A    between atoms: _693  and  _694
REMARK                            x       y       z     vdW  Elec       q    Type
REMARK                         _______ _______ _______ _____ _____    ______ ____
ROOT
ATOM      1  O   HOH     1       8.352  29.237  16.886  0.00  0.00    +0.000 OA
ENDROOT
TORSDOF 0
REMARK  Name = ../refined-set-2016/1b3f/1b3f_pocket.pdb
REMARK  269 active torsions:
REMARK  status: ('A' for Active; 'I' for Inactive)
REMARK    1  A    between atoms: _1  and  _3
REMARK    2  A    between atoms: _3  and  _4
REMARK    3  A    between atoms: _3  and  _6
REMARK    4  A    between atoms: _6  and  _7
REMARK    5  A    between atoms: _12  and  _14
REMARK    6  A    between atoms: _14  and  _15
REMARK    7  A    between atoms: _17  and  _19
REMARK    8  A    between atoms: _19  and  _20
REMARK    9  A    between atoms: _19  and  _22
REMARK   10  A    between atoms: _22  and  _23
REMARK   11  A    between atoms: _25  and  _27
REMARK   12  A    between atoms: _27  and  _28
REMARK   13  A    between atoms: _27  and  _30
REMARK   14  A    between atoms: _30  and  _31
REMARK   15  A    between atoms: _31  and  _32
REMARK   16  A    between atoms: _37  and  _39
REMARK   17  A    between atoms: _39  and  _40
REMARK   18  A    between atoms: _39  and  _42
REMARK   19  A    between atoms: _42  and  _43
REMARK   20  A    between atoms: _46  and  _48
REMARK   21  A    between atoms: _48  and  _49
REMARK   22  A    between atoms: _48  and  _51
REMARK   23  A    between atoms: _52  and  _53
REMARK   24  A    between atoms: _56  and  _58
REMARK   25  A    between atoms: _58  and  _59
REMARK   26  A    between atoms: _61  and  _63
REMARK   27  A    between atoms: _63  and  _64
REMARK   28  A    between atoms: _63  and  _66
REMARK   29  A    between atoms: _70  and  _71
REMARK   30  A    between atoms: _76  and  _78
REMARK   31  A    between atoms: _78  and  _79
REMARK   32  A    between atoms: _78  and  _81
REMARK   33  A    between atoms: _81  and  _82
REMARK   34  A    between atoms: _82  and  _83
REMARK   35  A    between atoms: _86  and  _88
REMARK   36  A    between atoms: _88  and  _89
REMARK   37  A    between atoms: _88  and  _91
REMARK   38  A    between atoms: _91  and  _92
REMARK   39  A    between atoms: _94  and  _96
REMARK   40  A    between atoms: _96  and  _97
REMARK   41  A    between atoms: _96  and  _99
REMARK   42  A    between atoms: _99  and  _100
REMARK   43  A    between atoms: _105  and  _107
REMARK   44  A    between atoms: _107  and  _108
REMARK   45  A    between atoms: _107  and  _110
REMARK   46  A    between atoms: _110  and  _111
REMARK   47  A    between atoms: _111  and  _112
REMARK   48  A    between atoms: _112  and  _113
REMARK   49  A    between atoms: _123  and  _124
REMARK   50  A    between atoms: _129  and  _131
REMARK   51  A    between atoms: _131  and  _132
REMARK   52  A    between atoms: _131  and  _134
REMARK   53  A    between atoms: _134  and  _135
REMARK   54  A    between atoms: _140  and  _141
REMARK   55  A    between atoms: _143  and  _145
REMARK   56  A    between atoms: _145  and  _146
REMARK   57  A    between atoms: _145  and  _148
REMARK   58  A    between atoms: _148  and  _149
REMARK   59  A    between atoms: _154  and  _155
REMARK   60  A    between atoms: _157  and  _159
REMARK   61  A    between atoms: _159  and  _160
REMARK   62  A    between atoms: _159  and  _162
REMARK   63  A    between atoms: _165  and  _167
REMARK   64  A    between atoms: _167  and  _168
REMARK   65  A    between atoms: _167  and  _170
REMARK   66  A    between atoms: _170  and  _171
REMARK   67  A    between atoms: _177  and  _178
REMARK   68  A    between atoms: _183  and  _185
REMARK   69  A    between atoms: _185  and  _186
REMARK   70  A    between atoms: _185  and  _188
REMARK   71  A    between atoms: _188  and  _189
REMARK   72  A    between atoms: _191  and  _193
REMARK   73  A    between atoms: _193  and  _194
REMARK   74  A    between atoms: _193  and  _196
REMARK   75  A    between atoms: _196  and  _197
REMARK   76  A    between atoms: _197  and  _198
REMARK   77  A    between atoms: _201  and  _203
REMARK   78  A    between atoms: _203  and  _204
REMARK   79  A    between atoms: _203  and  _206
REMARK   80  A    between atoms: _206  and  _207
REMARK   81  A    between atoms: _212  and  _213
REMARK   82  A    between atoms: _215  and  _217
REMARK   83  A    between atoms: _217  and  _218
REMARK   84  A    between atoms: _217  and  _220
REMARK   85  A    between atoms: _220  and  _221
REMARK   86  A    between atoms: _226  and  _228
REMARK   87  A    between atoms: _228  and  _229
REMARK   88  A    between atoms: _228  and  _231
REMARK   89  A    between atoms: _231  and  _232
REMARK   90  A    between atoms: _237  and  _239
REMARK   91  A    between atoms: _239  and  _240
REMARK   92  A    between atoms: _239  and  _242
REMARK   93  A    between atoms: _242  and  _243
REMARK   94  A    between atoms: _243  and  _244
REMARK   95  A    between atoms: _246  and  _248
REMARK   96  A    between atoms: _248  and  _249
REMARK   97  A    between atoms: _248  and  _251
REMARK   98  A    between atoms: _251  and  _252
REMARK   99  A    between atoms: _257  and  _258
REMARK  100  A    between atoms: _260  and  _262
REMARK  101  A    between atoms: _262  and  _263
REMARK  102  A    between atoms: _262  and  _265
REMARK  103  A    between atoms: _265  and  _266
REMARK  104  A    between atoms: _269  and  _271
REMARK  105  A    between atoms: _271  and  _272
REMARK  106  A    between atoms: _271  and  _274
REMARK  107  A    between atoms: _274  and  _275
REMARK  108  A    between atoms: _275  and  _496
REMARK  109  A    between atoms: _276  and  _278
REMARK  110  A    between atoms: _278  and  _279
REMARK  111  A    between atoms: _278  and  _281
REMARK  112  A    between atoms: _281  and  _282
REMARK  113  A    between atoms: _285  and  _287
REMARK  114  A    between atoms: _287  and  _288
REMARK  115  A    between atoms: _287  and  _290
REMARK  116  A    between atoms: _290  and  _291
REMARK  117  A    between atoms: _296  and  _297
REMARK  118  A    between atoms: _299  and  _301
REMARK  119  A    between atoms: _301  and  _302
REMARK  120  A    between atoms: _301  and  _304
REMARK  121  A    between atoms: _304  and  _305
REMARK  122  A    between atoms: _310  and  _311
REMARK  123  A    between atoms: _313  and  _315
REMARK  124  A    between atoms: _315  and  _316
REMARK  125  A    between atoms: _315  and  _318
REMARK  126  A    between atoms: _318  and  _319
REMARK  127  A    between atoms: _319  and  _320
REMARK  128  A    between atoms: _323  and  _325
REMARK  129  A    between atoms: _325  and  _326
REMARK  130  A    between atoms: _325  and  _328
REMARK  131  A    between atoms: _328  and  _329
REMARK  132  A    between atoms: _329  and  _330
REMARK  133  A    between atoms: _330  and  _331
REMARK  134  A    between atoms: _331  and  _332
REMARK  135  A    between atoms: _336  and  _338
REMARK  136  A    between atoms: _338  and  _339
REMARK  137  A    between atoms: _338  and  _341
REMARK  138  A    between atoms: _341  and  _342
REMARK  139  A    between atoms: _347  and  _348
REMARK  140  A    between atoms: _350  and  _352
REMARK  141  A    between atoms: _352  and  _353
REMARK  142  A    between atoms: _352  and  _355
REMARK  143  A    between atoms: _355  and  _356
REMARK  144  A    between atoms: _361  and  _363
REMARK  145  A    between atoms: _363  and  _364
REMARK  146  A    between atoms: _363  and  _366
REMARK  147  A    between atoms: _366  and  _367
REMARK  148  A    between atoms: _370  and  _372
REMARK  149  A    between atoms: _372  and  _373
REMARK  150  A    between atoms: _372  and  _375
REMARK  151  A    between atoms: _375  and  _376
REMARK  152  A    between atoms: _381  and  _383
REMARK  153  A    between atoms: _383  and  _384
REMARK  154  A    between atoms: _383  and  _386
REMARK  155  A    between atoms: _386  and  _387
REMARK  156  A    between atoms: _397  and  _399
REMARK  157  A    between atoms: _399  and  _400
REMARK  158  A    between atoms: _399  and  _402
REMARK  159  A    between atoms: _402  and  _403
REMARK  160  A    between atoms: _409  and  _411
REMARK  161  A    between atoms: _411  and  _412
REMARK  162  A    between atoms: _411  and  _414
REMARK  163  A    between atoms: _414  and  _415
REMARK  164  A    between atoms: _418  and  _420
REMARK  165  A    between atoms: _420  and  _421
REMARK  166  A    between atoms: _420  and  _423
REMARK  167  A    between atoms: _423  and  _424
REMARK  168  A    between atoms: _424  and  _425
REMARK  169  A    between atoms: _425  and  _426
REMARK  170  A    between atoms: _435  and  _437
REMARK  171  A    between atoms: _437  and  _438
REMARK  172  A    between atoms: _437  and  _440
REMARK  173  A    between atoms: _440  and  _441
REMARK  174  A    between atoms: _446  and  _448
REMARK  175  A    between atoms: _448  and  _449
REMARK  176  A    between atoms: _448  and  _451
REMARK  177  A    between atoms: _451  and  _452
REMARK  178  A    between atoms: _452  and  _453
REMARK  179  A    between atoms: _453  and  _454
REMARK  180  A    between atoms: _463  and  _465
REMARK  181  A    between atoms: _465  and  _466
REMARK  182  A    between atoms: _469  and  _471
REMARK  183  A    between atoms: _471  and  _472
REMARK  184  A    between atoms: _474  and  _476
REMARK  185  A    between atoms: _476  and  _477
REMARK  186  A    between atoms: _476  and  _479
REMARK  187  A    between atoms: _479  and  _480
REMARK  188  A    between atoms: _490  and  _492
REMARK  189  A    between atoms: _492  and  _493
REMARK  190  A    between atoms: _492  and  _495
REMARK  191  A    between atoms: _495  and  _496
REMARK  192  A    between atoms: _497  and  _499
REMARK  193  A    between atoms: _499  and  _500
REMARK  194  A    between atoms: _503  and  _505
REMARK  195  A    between atoms: _505  and  _506
REMARK  196  A    between atoms: _505  and  _508
REMARK  197  A    between atoms: _508  and  _509
REMARK  198  A    between atoms: _512  and  _514
REMARK  199  A    between atoms: _514  and  _515
REMARK  200  A    between atoms: _514  and  _517
REMARK  201  A    between atoms: _517  and  _518
REMARK  202  A    between atoms: _523  and  _524
REMARK  203  A    between atoms: _526  and  _528
REMARK  204  A    between atoms: _528  and  _529
REMARK  205  A    between atoms: _528  and  _531
REMARK  206  A    between atoms: _531  and  _532
REMARK  207  A    between atoms: _534  and  _536
REMARK  208  A    between atoms: _536  and  _537
REMARK  209  A    between atoms: _536  and  _539
REMARK  210  A    between atoms: _539  and  _540
REMARK  211  A    between atoms: _546  and  _548
REMARK  212  A    between atoms: _548  and  _549
REMARK  213  A    between atoms: _548  and  _551
REMARK  214  A    between atoms: _551  and  _552
REMARK  215  A    between atoms: _555  and  _557
REMARK  216  A    between atoms: _557  and  _558
REMARK  217  A    between atoms: _557  and  _560
REMARK  218  A    between atoms: _560  and  _561
REMARK  219  A    between atoms: _563  and  _565
REMARK  220  A    between atoms: _565  and  _566
REMARK  221  A    between atoms: _565  and  _568
REMARK  222  A    between atoms: _568  and  _569
REMARK  223  A    between atoms: _574  and  _576
REMARK  224  A    between atoms: _576  and  _577
REMARK  225  A    between atoms: _576  and  _579
REMARK  226  A    between atoms: _579  and  _580
REMARK  227  A    between atoms: _585  and  _587
REMARK  228  A    between atoms: _587  and  _588
REMARK  229  A    between atoms: _587  and  _590
REMARK  230  A    between atoms: _590  and  _591
REMARK  231  A    between atoms: _594  and  _596
REMARK  232  A    between atoms: _596  and  _597
REMARK  233  A    between atoms: _600  and  _602
REMARK  234  A    between atoms: _602  and  _603
REMARK  235  A    between atoms: _602  and  _605
REMARK  236  A    between atoms: _605  and  _606
REMARK  237  A    between atoms: _611  and  _612
REMARK  238  A    between atoms: _614  and  _616
REMARK  239  A    between atoms: _616  and  _617
REMARK  240  A    between atoms: _616  and  _619
REMARK  241  A    between atoms: _619  and  _620
REMARK  242  A    between atoms: _625  and  _626
REMARK  243  A    between atoms: _628  and  _630
REMARK  244  A    between atoms: _630  and  _631
REMARK  245  A    between atoms: _630  and  _633
REMARK  246  A    between atoms: _636  and  _638
REMARK  247  A    between atoms: _638  and  _639
REMARK  248  A    between atoms: _638  and  _641
REMARK  249  A    between atoms: _641  and  _642
REMARK  250  A    between atoms: _647  and  _649
REMARK  251  A    between atoms: _649  and  _650
REMARK  252  A    between atoms: _653  and  _655
REMARK  253  A    between atoms: _655  and  _656
REMARK  254  A    between atoms: _655  and  _658
REMARK  255  A    between atoms: _658  and  _659
REMARK  256  A    between atoms: _659  and  _660
REMARK  257  A    between atoms: _660  and  _661
REMARK  258  A    between atoms: _670  and  _672
REMARK  259  A    between atoms: _672  and  _673
REMARK  260  A    between atoms: _672  and  _675
REMARK  261  A    between atoms: _675  and  _676
REMARK  262  A    between atoms: _679  and  _681
REMARK  263  A    between atoms: _681  and  _682
REMARK  264  A    between atoms: _681  and  _684
REMARK  265  A    between atoms: _684  and  _685
REMARK  266  A    between atoms: _688  and  _690
REMARK  267  A    between atoms: _690  and  _691
REMARK  268  A    between atoms: _690  and  _693
REMARK  269  A    between atoms: _693  and  _694
REMARK                            x       y       z     vdW  Elec       q    Type
REMARK                         _______ _______ _______ _____ _____    ______ ____
ROOT
ATOM      1  O   HOH     1      10.975  28.458  16.083  0.00  0.00    +0.000 OA
ENDROOT
TORSDOF 0
REMARK  Name = ../refined-set-2016/1b3f/1b3f_pocket.pdb
REMARK  269 active torsions:
REMARK  status: ('A' for Active; 'I' for Inactive)
REMARK    1  A    between atoms: _1  and  _3
REMARK    2  A    between atoms: _3  and  _4
REMARK    3  A    between atoms: _3  and  _6
REMARK    4  A    between atoms: _6  and  _7
REMARK    5  A    between atoms: _12  and  _14
REMARK    6  A    between atoms: _14  and  _15
REMARK    7  A    between atoms: _17  and  _19
REMARK    8  A    between atoms: _19  and  _20
REMARK    9  A    between atoms: _19  and  _22
REMARK   10  A    between atoms: _22  and  _23
REMARK   11  A    between atoms: _25  and  _27
REMARK   12  A    between atoms: _27  and  _28
REMARK   13  A    between atoms: _27  and  _30
REMARK   14  A    between atoms: _30  and  _31
REMARK   15  A    between atoms: _31  and  _32
REMARK   16  A    between atoms: _37  and  _39
REMARK   17  A    between atoms: _39  and  _40
REMARK   18  A    between atoms: _39  and  _42
REMARK   19  A    between atoms: _42  and  _43
REMARK   20  A    between atoms: _46  and  _48
REMARK   21  A    between atoms: _48  and  _49
REMARK   22  A    between atoms: _48  and  _51
REMARK   23  A    between atoms: _52  and  _53
REMARK   24  A    between atoms: _56  and  _58
REMARK   25  A    between atoms: _58  and  _59
REMARK   26  A    between atoms: _61  and  _63
REMARK   27  A    between atoms: _63  and  _64
REMARK   28  A    between atoms: _63  and  _66
REMARK   29  A    between atoms: _70  and  _71
REMARK   30  A    between atoms: _76  and  _78
REMARK   31  A    between atoms: _78  and  _79
REMARK   32  A    between atoms: _78  and  _81
REMARK   33  A    between atoms: _81  and  _82
REMARK   34  A    between atoms: _82  and  _83
REMARK   35  A    between atoms: _86  and  _88
REMARK   36  A    between atoms: _88  and  _89
REMARK   37  A    between atoms: _88  and  _91
REMARK   38  A    between atoms: _91  and  _92
REMARK   39  A    between atoms: _94  and  _96
REMARK   40  A    between atoms: _96  and  _97
REMARK   41  A    between atoms: _96  and  _99
REMARK   42  A    between atoms: _99  and  _100
REMARK   43  A    between atoms: _105  and  _107
REMARK   44  A    between atoms: _107  and  _108
REMARK   45  A    between atoms: _107  and  _110
REMARK   46  A    between atoms: _110  and  _111
REMARK   47  A    between atoms: _111  and  _112
REMARK   48  A    between atoms: _112  and  _113
REMARK   49  A    between atoms: _123  and  _124
REMARK   50  A    between atoms: _129  and  _131
REMARK   51  A    between atoms: _131  and  _132
REMARK   52  A    between atoms: _131  and  _134
REMARK   53  A    between atoms: _134  and  _135
REMARK   54  A    between atoms: _140  and  _141
REMARK   55  A    between atoms: _143  and  _145
REMARK   56  A    between atoms: _145  and  _146
REMARK   57  A    between atoms: _145  and  _148
REMARK   58  A    between atoms: _148  and  _149
REMARK   59  A    between atoms: _154  and  _155
REMARK   60  A    between atoms: _157  and  _159
REMARK   61  A    between atoms: _159  and  _160
REMARK   62  A    between atoms: _159  and  _162
REMARK   63  A    between atoms: _165  and  _167
REMARK   64  A    between atoms: _167  and  _168
REMARK   65  A    between atoms: _167  and  _170
REMARK   66  A    between atoms: _170  and  _171
REMARK   67  A    between atoms: _177  and  _178
REMARK   68  A    between atoms: _183  and  _185
REMARK   69  A    between atoms: _185  and  _186
REMARK   70  A    between atoms: _185  and  _188
REMARK   71  A    between atoms: _188  and  _189
REMARK   72  A    between atoms: _191  and  _193
REMARK   73  A    between atoms: _193  and  _194
REMARK   74  A    between atoms: _193  and  _196
REMARK   75  A    between atoms: _196  and  _197
REMARK   76  A    between atoms: _197  and  _198
REMARK   77  A    between atoms: _201  and  _203
REMARK   78  A    between atoms: _203  and  _204
REMARK   79  A    between atoms: _203  and  _206
REMARK   80  A    between atoms: _206  and  _207
REMARK   81  A    between atoms: _212  and  _213
REMARK   82  A    between atoms: _215  and  _217
REMARK   83  A    between atoms: _217  and  _218
REMARK   84  A    between atoms: _217  and  _220
REMARK   85  A    between atoms: _220  and  _221
REMARK   86  A    between atoms: _226  and  _228
REMARK   87  A    between atoms: _228  and  _229
REMARK   88  A    between atoms: _228  and  _231
REMARK   89  A    between atoms: _231  and  _232
REMARK   90  A    between atoms: _237  and  _239
REMARK   91  A    between atoms: _239  and  _240
REMARK   92  A    between atoms: _239  and  _242
REMARK   93  A    between atoms: _242  and  _243
REMARK   94  A    between atoms: _243  and  _244
REMARK   95  A    between atoms: _246  and  _248
REMARK   96  A    between atoms: _248  and  _249
REMARK   97  A    between atoms: _248  and  _251
REMARK   98  A    between atoms: _251  and  _252
REMARK   99  A    between atoms: _257  and  _258
REMARK  100  A    between atoms: _260  and  _262
REMARK  101  A    between atoms: _262  and  _263
REMARK  102  A    between atoms: _262  and  _265
REMARK  103  A    between atoms: _265  and  _266
REMARK  104  A    between atoms: _269  and  _271
REMARK  105  A    between atoms: _271  and  _272
REMARK  106  A    between atoms: _271  and  _274
REMARK  107  A    between atoms: _274  and  _275
REMARK  108  A    between atoms: _275  and  _496
REMARK  109  A    between atoms: _276  and  _278
REMARK  110  A    between atoms: _278  and  _279
REMARK  111  A    between atoms: _278  and  _281
REMARK  112  A    between atoms: _281  and  _282
REMARK  113  A    between atoms: _285  and  _287
REMARK  114  A    between atoms: _287  and  _288
REMARK  115  A    between atoms: _287  and  _290
REMARK  116  A    between atoms: _290  and  _291
REMARK  117  A    between atoms: _296  and  _297
REMARK  118  A    between atoms: _299  and  _301
REMARK  119  A    between atoms: _301  and  _302
REMARK  120  A    between atoms: _301  and  _304
REMARK  121  A    between atoms: _304  and  _305
REMARK  122  A    between atoms: _310  and  _311
REMARK  123  A    between atoms: _313  and  _315
REMARK  124  A    between atoms: _315  and  _316
REMARK  125  A    between atoms: _315  and  _318
REMARK  126  A    between atoms: _318  and  _319
REMARK  127  A    between atoms: _319  and  _320
REMARK  128  A    between atoms: _323  and  _325
REMARK  129  A    between atoms: _325  and  _326
REMARK  130  A    between atoms: _325  and  _328
REMARK  131  A    between atoms: _328  and  _329
REMARK  132  A    between atoms: _329  and  _330
REMARK  133  A    between atoms: _330  and  _331
REMARK  134  A    between atoms: _331  and  _332
REMARK  135  A    between atoms: _336  and  _338
REMARK  136  A    between atoms: _338  and  _339
REMARK  137  A    between atoms: _338  and  _341
REMARK  138  A    between atoms: _341  and  _342
REMARK  139  A    between atoms: _347  and  _348
REMARK  140  A    between atoms: _350  and  _352
REMARK  141  A    between atoms: _352  and  _353
REMARK  142  A    between atoms: _352  and  _355
REMARK  143  A    between atoms: _355  and  _356
REMARK  144  A    between atoms: _361  and  _363
REMARK  145  A    between atoms: _363  and  _364
REMARK  146  A    between atoms: _363  and  _366
REMARK  147  A    between atoms: _366  and  _367
REMARK  148  A    between atoms: _370  and  _372
REMARK  149  A    between atoms: _372  and  _373
REMARK  150  A    between atoms: _372  and  _375
REMARK  151  A    between atoms: _375  and  _376
REMARK  152  A    between atoms: _381  and  _383
REMARK  153  A    between atoms: _383  and  _384
REMARK  154  A    between atoms: _383  and  _386
REMARK  155  A    between atoms: _386  and  _387
REMARK  156  A    between atoms: _397  and  _399
REMARK  157  A    between atoms: _399  and  _400
REMARK  158  A    between atoms: _399  and  _402
REMARK  159  A    between atoms: _402  and  _403
REMARK  160  A    between atoms: _409  and  _411
REMARK  161  A    between atoms: _411  and  _412
REMARK  162  A    between atoms: _411  and  _414
REMARK  163  A    between atoms: _414  and  _415
REMARK  164  A    between atoms: _418  and  _420
REMARK  165  A    between atoms: _420  and  _421
REMARK  166  A    between atoms: _420  and  _423
REMARK  167  A    between atoms: _423  and  _424
REMARK  168  A    between atoms: _424  and  _425
REMARK  169  A    between atoms: _425  and  _426
REMARK  170  A    between atoms: _435  and  _437
REMARK  171  A    between atoms: _437  and  _438
REMARK  172  A    between atoms: _437  and  _440
REMARK  173  A    between atoms: _440  and  _441
REMARK  174  A    between atoms: _446  and  _448
REMARK  175  A    between atoms: _448  and  _449
REMARK  176  A    between atoms: _448  and  _451
REMARK  177  A    between atoms: _451  and  _452
REMARK  178  A    between atoms: _452  and  _453
REMARK  179  A    between atoms: _453  and  _454
REMARK  180  A    between atoms: _463  and  _465
REMARK  181  A    between atoms: _465  and  _466
REMARK  182  A    between atoms: _469  and  _471
REMARK  183  A    between atoms: _471  and  _472
REMARK  184  A    between atoms: _474  and  _476
REMARK  185  A    between atoms: _476  and  _477
REMARK  186  A    between atoms: _476  and  _479
REMARK  187  A    between atoms: _479  and  _480
REMARK  188  A    between atoms: _490  and  _492
REMARK  189  A    between atoms: _492  and  _493
REMARK  190  A    between atoms: _492  and  _495
REMARK  191  A    between atoms: _495  and  _496
REMARK  192  A    between atoms: _497  and  _499
REMARK  193  A    between atoms: _499  and  _500
REMARK  194  A    between atoms: _503  and  _505
REMARK  195  A    between atoms: _505  and  _506
REMARK  196  A    between atoms: _505  and  _508
REMARK  197  A    between atoms: _508  and  _509
REMARK  198  A    between atoms: _512  and  _514
REMARK  199  A    between atoms: _514  and  _515
REMARK  200  A    between atoms: _514  and  _517
REMARK  201  A    between atoms: _517  and  _518
REMARK  202  A    between atoms: _523  and  _524
REMARK  203  A    between atoms: _526  and  _528
REMARK  204  A    between atoms: _528  and  _529
REMARK  205  A    between atoms: _528  and  _531
REMARK  206  A    between atoms: _531  and  _532
REMARK  207  A    between atoms: _534  and  _536
REMARK  208  A    between atoms: _536  and  _537
REMARK  209  A    between atoms: _536  and  _539
REMARK  210  A    between atoms: _539  and  _540
REMARK  211  A    between atoms: _546  and  _548
REMARK  212  A    between atoms: _548  and  _549
REMARK  213  A    between atoms: _548  and  _551
REMARK  214  A    between atoms: _551  and  _552
REMARK  215  A    between atoms: _555  and  _557
REMARK  216  A    between atoms: _557  and  _558
REMARK  217  A    between atoms: _557  and  _560
REMARK  218  A    between atoms: _560  and  _561
REMARK  219  A    between atoms: _563  and  _565
REMARK  220  A    between atoms: _565  and  _566
REMARK  221  A    between atoms: _565  and  _568
REMARK  222  A    between atoms: _568  and  _569
REMARK  223  A    between atoms: _574  and  _576
REMARK  224  A    between atoms: _576  and  _577
REMARK  225  A    between atoms: _576  and  _579
REMARK  226  A    between atoms: _579  and  _580
REMARK  227  A    between atoms: _585  and  _587
REMARK  228  A    between atoms: _587  and  _588
REMARK  229  A    between atoms: _587  and  _590
REMARK  230  A    between atoms: _590  and  _591
REMARK  231  A    between atoms: _594  and  _596
REMARK  232  A    between atoms: _596  and  _597
REMARK  233  A    between atoms: _600  and  _602
REMARK  234  A    between atoms: _602  and  _603
REMARK  235  A    between atoms: _602  and  _605
REMARK  236  A    between atoms: _605  and  _606
REMARK  237  A    between atoms: _611  and  _612
REMARK  238  A    between atoms: _614  and  _616
REMARK  239  A    between atoms: _616  and  _617
REMARK  240  A    between atoms: _616  and  _619
REMARK  241  A    between atoms: _619  and  _620
REMARK  242  A    between atoms: _625  and  _626
REMARK  243  A    between atoms: _628  and  _630
REMARK  244  A    between atoms: _630  and  _631
REMARK  245  A    between atoms: _630  and  _633
REMARK  246  A    between atoms: _636  and  _638
REMARK  247  A    between atoms: _638  and  _639
REMARK  248  A    between atoms: _638  and  _641
REMARK  249  A    between atoms: _641  and  _642
REMARK  250  A    between atoms: _647  and  _649
REMARK  251  A    between atoms: _649  and  _650
REMARK  252  A    between atoms: _653  and  _655
REMARK  253  A    between atoms: _655  and  _656
REMARK  254  A    between atoms: _655  and  _658
REMARK  255  A    between atoms: _658  and  _659
REMARK  256  A    between atoms: _659  and  _660
REMARK  257  A    between atoms: _660  and  _661
REMARK  258  A    between atoms: _670  and  _672
REMARK  259  A    between atoms: _672  and  _673
REMARK  260  A    between atoms: _672  and  _675
REMARK  261  A    between atoms: _675  and  _676
REMARK  262  A    between atoms: _679  and  _681
REMARK  263  A    between atoms: _681  and  _682
REMARK  264  A    between atoms: _681  and  _684
REMARK  265  A    between atoms: _684  and  _685
REMARK  266  A    between atoms: _688  and  _690
REMARK  267  A    between atoms: _690  and  _691
REMARK  268  A    between atoms: _690  and  _693
REMARK  269  A    between atoms: _693  and  _694
REMARK                            x       y       z     vdW  Elec       q    Type
REMARK                         _______ _______ _______ _____ _____    ______ ____
ROOT
ATOM      1  O   HOH     1       7.793  19.300  22.603  0.00  0.00    +0.000 OA
ENDROOT
TORSDOF 0
REMARK  Name = ../refined-set-2016/1b3f/1b3f_pocket.pdb
REMARK  269 active torsions:
REMARK  status: ('A' for Active; 'I' for Inactive)
REMARK    1  A    between atoms: _1  and  _3
REMARK    2  A    between atoms: _3  and  _4
REMARK    3  A    between atoms: _3  and  _6
REMARK    4  A    between atoms: _6  and  _7
REMARK    5  A    between atoms: _12  and  _14
REMARK    6  A    between atoms: _14  and  _15
REMARK    7  A    between atoms: _17  and  _19
REMARK    8  A    between atoms: _19  and  _20
REMARK    9  A    between atoms: _19  and  _22
REMARK   10  A    between atoms: _22  and  _23
REMARK   11  A    between atoms: _25  and  _27
REMARK   12  A    between atoms: _27  and  _28
REMARK   13  A    between atoms: _27  and  _30
REMARK   14  A    between atoms: _30  and  _31
REMARK   15  A    between atoms: _31  and  _32
REMARK   16  A    between atoms: _37  and  _39
REMARK   17  A    between atoms: _39  and  _40
REMARK   18  A    between atoms: _39  and  _42
REMARK   19  A    between atoms: _42  and  _43
REMARK   20  A    between atoms: _46  and  _48
REMARK   21  A    between atoms: _48  and  _49
REMARK   22  A    between atoms: _48  and  _51
REMARK   23  A    between atoms: _52  and  _53
REMARK   24  A    between atoms: _56  and  _58
REMARK   25  A    between atoms: _58  and  _59
REMARK   26  A    between atoms: _61  and  _63
REMARK   27  A    between atoms: _63  and  _64
REMARK   28  A    between atoms: _63  and  _66
REMARK   29  A    between atoms: _70  and  _71
REMARK   30  A    between atoms: _76  and  _78
REMARK   31  A    between atoms: _78  and  _79
REMARK   32  A    between atoms: _78  and  _81
REMARK   33  A    between atoms: _81  and  _82
REMARK   34  A    between atoms: _82  and  _83
REMARK   35  A    between atoms: _86  and  _88
REMARK   36  A    between atoms: _88  and  _89
REMARK   37  A    between atoms: _88  and  _91
REMARK   38  A    between atoms: _91  and  _92
REMARK   39  A    between atoms: _94  and  _96
REMARK   40  A    between atoms: _96  and  _97
REMARK   41  A    between atoms: _96  and  _99
REMARK   42  A    between atoms: _99  and  _100
REMARK   43  A    between atoms: _105  and  _107
REMARK   44  A    between atoms: _107  and  _108
REMARK   45  A    between atoms: _107  and  _110
REMARK   46  A    between atoms: _110  and  _111
REMARK   47  A    between atoms: _111  and  _112
REMARK   48  A    between atoms: _112  and  _113
REMARK   49  A    between atoms: _123  and  _124
REMARK   50  A    between atoms: _129  and  _131
REMARK   51  A    between atoms: _131  and  _132
REMARK   52  A    between atoms: _131  and  _134
REMARK   53  A    between atoms: _134  and  _135
REMARK   54  A    between atoms: _140  and  _141
REMARK   55  A    between atoms: _143  and  _145
REMARK   56  A    between atoms: _145  and  _146
REMARK   57  A    between atoms: _145  and  _148
REMARK   58  A    between atoms: _148  and  _149
REMARK   59  A    between atoms: _154  and  _155
REMARK   60  A    between atoms: _157  and  _159
REMARK   61  A    between atoms: _159  and  _160
REMARK   62  A    between atoms: _159  and  _162
REMARK   63  A    between atoms: _165  and  _167
REMARK   64  A    between atoms: _167  and  _168
REMARK   65  A    between atoms: _167  and  _170
REMARK   66  A    between atoms: _170  and  _171
REMARK   67  A    between atoms: _177  and  _178
REMARK   68  A    between atoms: _183  and  _185
REMARK   69  A    between atoms: _185  and  _186
REMARK   70  A    between atoms: _185  and  _188
REMARK   71  A    between atoms: _188  and  _189
REMARK   72  A    between atoms: _191  and  _193
REMARK   73  A    between atoms: _193  and  _194
REMARK   74  A    between atoms: _193  and  _196
REMARK   75  A    between atoms: _196  and  _197
REMARK   76  A    between atoms: _197  and  _198
REMARK   77  A    between atoms: _201  and  _203
REMARK   78  A    between atoms: _203  and  _204
REMARK   79  A    between atoms: _203  and  _206
REMARK   80  A    between atoms: _206  and  _207
REMARK   81  A    between atoms: _212  and  _213
REMARK   82  A    between atoms: _215  and  _217
REMARK   83  A    between atoms: _217  and  _218
REMARK   84  A    between atoms: _217  and  _220
REMARK   85  A    between atoms: _220  and  _221
REMARK   86  A    between atoms: _226  and  _228
REMARK   87  A    between atoms: _228  and  _229
REMARK   88  A    between atoms: _228  and  _231
REMARK   89  A    between atoms: _231  and  _232
REMARK   90  A    between atoms: _237  and  _239
REMARK   91  A    between atoms: _239  and  _240
REMARK   92  A    between atoms: _239  and  _242
REMARK   93  A    between atoms: _242  and  _243
REMARK   94  A    between atoms: _243  and  _244
REMARK   95  A    between atoms: _246  and  _248
REMARK   96  A    between atoms: _248  and  _249
REMARK   97  A    between atoms: _248  and  _251
REMARK   98  A    between atoms: _251  and  _252
REMARK   99  A    between atoms: _257  and  _258
REMARK  100  A    between atoms: _260  and  _262
REMARK  101  A    between atoms: _262  and  _263
REMARK  102  A    between atoms: _262  and  _265
REMARK  103  A    between atoms: _265  and  _266
REMARK  104  A    between atoms: _269  and  _271
REMARK  105  A    between atoms: _271  and  _272
REMARK  106  A    between atoms: _271  and  _274
REMARK  107  A    between atoms: _274  and  _275
REMARK  108  A    between atoms: _275  and  _496
REMARK  109  A    between atoms: _276  and  _278
REMARK  110  A    between atoms: _278  and  _279
REMARK  111  A    between atoms: _278  and  _281
REMARK  112  A    between atoms: _281  and  _282
REMARK  113  A    between atoms: _285  and  _287
REMARK  114  A    between atoms: _287  and  _288
REMARK  115  A    between atoms: _287  and  _290
REMARK  116  A    between atoms: _290  and  _291
REMARK  117  A    between atoms: _296  and  _297
REMARK  118  A    between atoms: _299  and  _301
REMARK  119  A    between atoms: _301  and  _302
REMARK  120  A    between atoms: _301  and  _304
REMARK  121  A    between atoms: _304  and  _305
REMARK  122  A    between atoms: _310  and  _311
REMARK  123  A    between atoms: _313  and  _315
REMARK  124  A    between atoms: _315  and  _316
REMARK  125  A    between atoms: _315  and  _318
REMARK  126  A    between atoms: _318  and  _319
REMARK  127  A    between atoms: _319  and  _320
REMARK  128  A    between atoms: _323  and  _325
REMARK  129  A    between atoms: _325  and  _326
REMARK  130  A    between atoms: _325  and  _328
REMARK  131  A    between atoms: _328  and  _329
REMARK  132  A    between atoms: _329  and  _330
REMARK  133  A    between atoms: _330  and  _331
REMARK  134  A    between atoms: _331  and  _332
REMARK  135  A    between atoms: _336  and  _338
REMARK  136  A    between atoms: _338  and  _339
REMARK  137  A    between atoms: _338  and  _341
REMARK  138  A    between atoms: _341  and  _342
REMARK  139  A    between atoms: _347  and  _348
REMARK  140  A    between atoms: _350  and  _352
REMARK  141  A    between atoms: _352  and  _353
REMARK  142  A    between atoms: _352  and  _355
REMARK  143  A    between atoms: _355  and  _356
REMARK  144  A    between atoms: _361  and  _363
REMARK  145  A    between atoms: _363  and  _364
REMARK  146  A    between atoms: _363  and  _366
REMARK  147  A    between atoms: _366  and  _367
REMARK  148  A    between atoms: _370  and  _372
REMARK  149  A    between atoms: _372  and  _373
REMARK  150  A    between atoms: _372  and  _375
REMARK  151  A    between atoms: _375  and  _376
REMARK  152  A    between atoms: _381  and  _383
REMARK  153  A    between atoms: _383  and  _384
REMARK  154  A    between atoms: _383  and  _386
REMARK  155  A    between atoms: _386  and  _387
REMARK  156  A    between atoms: _397  and  _399
REMARK  157  A    between atoms: _399  and  _400
REMARK  158  A    between atoms: _399  and  _402
REMARK  159  A    between atoms: _402  and  _403
REMARK  160  A    between atoms: _409  and  _411
REMARK  161  A    between atoms: _411  and  _412
REMARK  162  A    between atoms: _411  and  _414
REMARK  163  A    between atoms: _414  and  _415
REMARK  164  A    between atoms: _418  and  _420
REMARK  165  A    between atoms: _420  and  _421
REMARK  166  A    between atoms: _420  and  _423
REMARK  167  A    between atoms: _423  and  _424
REMARK  168  A    between atoms: _424  and  _425
REMARK  169  A    between atoms: _425  and  _426
REMARK  170  A    between atoms: _435  and  _437
REMARK  171  A    between atoms: _437  and  _438
REMARK  172  A    between atoms: _437  and  _440
REMARK  173  A    between atoms: _440  and  _441
REMARK  174  A    between atoms: _446  and  _448
REMARK  175  A    between atoms: _448  and  _449
REMARK  176  A    between atoms: _448  and  _451
REMARK  177  A    between atoms: _451  and  _452
REMARK  178  A    between atoms: _452  and  _453
REMARK  179  A    between atoms: _453  and  _454
REMARK  180  A    between atoms: _463  and  _465
REMARK  181  A    between atoms: _465  and  _466
REMARK  182  A    between atoms: _469  and  _471
REMARK  183  A    between atoms: _471  and  _472
REMARK  184  A    between atoms: _474  and  _476
REMARK  185  A    between atoms: _476  and  _477
REMARK  186  A    between atoms: _476  and  _479
REMARK  187  A    between atoms: _479  and  _480
REMARK  188  A    between atoms: _490  and  _492
REMARK  189  A    between atoms: _492  and  _493
REMARK  190  A    between atoms: _492  and  _495
REMARK  191  A    between atoms: _495  and  _496
REMARK  192  A    between atoms: _497  and  _499
REMARK  193  A    between atoms: _499  and  _500
REMARK  194  A    between atoms: _503  and  _505
REMARK  195  A    between atoms: _505  and  _506
REMARK  196  A    between atoms: _505  and  _508
REMARK  197  A    between atoms: _508  and  _509
REMARK  198  A    between atoms: _512  and  _514
REMARK  199  A    between atoms: _514  and  _515
REMARK  200  A    between atoms: _514  and  _517
REMARK  201  A    between atoms: _517  and  _518
REMARK  202  A    between atoms: _523  and  _524
REMARK  203  A    between atoms: _526  and  _528
REMARK  204  A    between atoms: _528  and  _529
REMARK  205  A    between atoms: _528  and  _531
REMARK  206  A    between atoms: _531  and  _532
REMARK  207  A    between atoms: _534  and  _536
REMARK  208  A    between atoms: _536  and  _537
REMARK  209  A    between atoms: _536  and  _539
REMARK  210  A    between atoms: _539  and  _540
REMARK  211  A    between atoms: _546  and  _548
REMARK  212  A    between atoms: _548  and  _549
REMARK  213  A    between atoms: _548  and  _551
REMARK  214  A    between atoms: _551  and  _552
REMARK  215  A    between atoms: _555  and  _557
REMARK  216  A    between atoms: _557  and  _558
REMARK  217  A    between atoms: _557  and  _560
REMARK  218  A    between atoms: _560  and  _561
REMARK  219  A    between atoms: _563  and  _565
REMARK  220  A    between atoms: _565  and  _566
REMARK  221  A    between atoms: _565  and  _568
REMARK  222  A    between atoms: _568  and  _569
REMARK  223  A    between atoms: _574  and  _576
REMARK  224  A    between atoms: _576  and  _577
REMARK  225  A    between atoms: _576  and  _579
REMARK  226  A    between atoms: _579  and  _580
REMARK  227  A    between atoms: _585  and  _587
REMARK  228  A    between atoms: _587  and  _588
REMARK  229  A    between atoms: _587  and  _590
REMARK  230  A    between atoms: _590  and  _591
REMARK  231  A    between atoms: _594  and  _596
REMARK  232  A    between atoms: _596  and  _597
REMARK  233  A    between atoms: _600  and  _602
REMARK  234  A    between atoms: _602  and  _603
REMARK  235  A    between atoms: _602  and  _605
REMARK  236  A    between atoms: _605  and  _606
REMARK  237  A    between atoms: _611  and  _612
REMARK  238  A    between atoms: _614  and  _616
REMARK  239  A    between atoms: _616  and  _617
REMARK  240  A    between atoms: _616  and  _619
REMARK  241  A    between atoms: _619  and  _620
REMARK  242  A    between atoms: _625  and  _626
REMARK  243  A    between atoms: _628  and  _630
REMARK  244  A    between atoms: _630  and  _631
REMARK  245  A    between atoms: _630  and  _633
REMARK  246  A    between atoms: _636  and  _638
REMARK  247  A    between atoms: _638  and  _639
REMARK  248  A    between atoms: _638  and  _641
REMARK  249  A    between atoms: _641  and  _642
REMARK  250  A    between atoms: _647  and  _649
REMARK  251  A    between atoms: _649  and  _650
REMARK  252  A    between atoms: _653  and  _655
REMARK  253  A    between atoms: _655  and  _656
REMARK  254  A    between atoms: _655  and  _658
REMARK  255  A    between atoms: _658  and  _659
REMARK  256  A    between atoms: _659  and  _660
REMARK  257  A    between atoms: _660  and  _661
REMARK  258  A    between atoms: _670  and  _672
REMARK  259  A    between atoms: _672  and  _673
REMARK  260  A    between atoms: _672  and  _675
REMARK  261  A    between atoms: _675  and  _676
REMARK  262  A    between atoms: _679  and  _681
REMARK  263  A    between atoms: _681  and  _682
REMARK  264  A    between atoms: _681  and  _684
REMARK  265  A    between atoms: _684  and  _685
REMARK  266  A    between atoms: _688  and  _690
REMARK  267  A    between atoms: _690  and  _691
REMARK  268  A    between atoms: _690  and  _693
REMARK  269  A    between atoms: _693  and  _694
REMARK                            x       y       z     vdW  Elec       q    Type
REMARK                         _______ _______ _______ _____ _____    ______ ____
ROOT
ATOM      1  O   HOH     1       3.143  20.163  21.075  0.00  0.00    +0.000 OA
ENDROOT
TORSDOF 0
REMARK  Name = ../refined-set-2016/1b3f/1b3f_pocket.pdb
REMARK  269 active torsions:
REMARK  status: ('A' for Active; 'I' for Inactive)
REMARK    1  A    between atoms: _1  and  _3
REMARK    2  A    between atoms: _3  and  _4
REMARK    3  A    between atoms: _3  and  _6
REMARK    4  A    between atoms: _6  and  _7
REMARK    5  A    between atoms: _12  and  _14
REMARK    6  A    between atoms: _14  and  _15
REMARK    7  A    between atoms: _17  and  _19
REMARK    8  A    between atoms: _19  and  _20
REMARK    9  A    between atoms: _19  and  _22
REMARK   10  A    between atoms: _22  and  _23
REMARK   11  A    between atoms: _25  and  _27
REMARK   12  A    between atoms: _27  and  _28
REMARK   13  A    between atoms: _27  and  _30
REMARK   14  A    between atoms: _30  and  _31
REMARK   15  A    between atoms: _31  and  _32
REMARK   16  A    between atoms: _37  and  _39
REMARK   17  A    between atoms: _39  and  _40
REMARK   18  A    between atoms: _39  and  _42
REMARK   19  A    between atoms: _42  and  _43
REMARK   20  A    between atoms: _46  and  _48
REMARK   21  A    between atoms: _48  and  _49
REMARK   22  A    between atoms: _48  and  _51
REMARK   23  A    between atoms: _52  and  _53
REMARK   24  A    between atoms: _56  and  _58
REMARK   25  A    between atoms: _58  and  _59
REMARK   26  A    between atoms: _61  and  _63
REMARK   27  A    between atoms: _63  and  _64
REMARK   28  A    between atoms: _63  and  _66
REMARK   29  A    between atoms: _70  and  _71
REMARK   30  A    between atoms: _76  and  _78
REMARK   31  A    between atoms: _78  and  _79
REMARK   32  A    between atoms: _78  and  _81
REMARK   33  A    between atoms: _81  and  _82
REMARK   34  A    between atoms: _82  and  _83
REMARK   35  A    between atoms: _86  and  _88
REMARK   36  A    between atoms: _88  and  _89
REMARK   37  A    between atoms: _88  and  _91
REMARK   38  A    between atoms: _91  and  _92
REMARK   39  A    between atoms: _94  and  _96
REMARK   40  A    between atoms: _96  and  _97
REMARK   41  A    between atoms: _96  and  _99
REMARK   42  A    between atoms: _99  and  _100
REMARK   43  A    between atoms: _105  and  _107
REMARK   44  A    between atoms: _107  and  _108
REMARK   45  A    between atoms: _107  and  _110
REMARK   46  A    between atoms: _110  and  _111
REMARK   47  A    between atoms: _111  and  _112
REMARK   48  A    between atoms: _112  and  _113
REMARK   49  A    between atoms: _123  and  _124
REMARK   50  A    between atoms: _129  and  _131
REMARK   51  A    between atoms: _131  and  _132
REMARK   52  A    between atoms: _131  and  _134
REMARK   53  A    between atoms: _134  and  _135
REMARK   54  A    between atoms: _140  and  _141
REMARK   55  A    between atoms: _143  and  _145
REMARK   56  A    between atoms: _145  and  _146
REMARK   57  A    between atoms: _145  and  _148
REMARK   58  A    between atoms: _148  and  _149
REMARK   59  A    between atoms: _154  and  _155
REMARK   60  A    between atoms: _157  and  _159
REMARK   61  A    between atoms: _159  and  _160
REMARK   62  A    between atoms: _159  and  _162
REMARK   63  A    between atoms: _165  and  _167
REMARK   64  A    between atoms: _167  and  _168
REMARK   65  A    between atoms: _167  and  _170
REMARK   66  A    between atoms: _170  and  _171
REMARK   67  A    between atoms: _177  and  _178
REMARK   68  A    between atoms: _183  and  _185
REMARK   69  A    between atoms: _185  and  _186
REMARK   70  A    between atoms: _185  and  _188
REMARK   71  A    between atoms: _188  and  _189
REMARK   72  A    between atoms: _191  and  _193
REMARK   73  A    between atoms: _193  and  _194
REMARK   74  A    between atoms: _193  and  _196
REMARK   75  A    between atoms: _196  and  _197
REMARK   76  A    between atoms: _197  and  _198
REMARK   77  A    between atoms: _201  and  _203
REMARK   78  A    between atoms: _203  and  _204
REMARK   79  A    between atoms: _203  and  _206
REMARK   80  A    between atoms: _206  and  _207
REMARK   81  A    between atoms: _212  and  _213
REMARK   82  A    between atoms: _215  and  _217
REMARK   83  A    between atoms: _217  and  _218
REMARK   84  A    between atoms: _217  and  _220
REMARK   85  A    between atoms: _220  and  _221
REMARK   86  A    between atoms: _226  and  _228
REMARK   87  A    between atoms: _228  and  _229
REMARK   88  A    between atoms: _228  and  _231
REMARK   89  A    between atoms: _231  and  _232
REMARK   90  A    between atoms: _237  and  _239
REMARK   91  A    between atoms: _239  and  _240
REMARK   92  A    between atoms: _239  and  _242
REMARK   93  A    between atoms: _242  and  _243
REMARK   94  A    between atoms: _243  and  _244
REMARK   95  A    between atoms: _246  and  _248
REMARK   96  A    between atoms: _248  and  _249
REMARK   97  A    between atoms: _248  and  _251
REMARK   98  A    between atoms: _251  and  _252
REMARK   99  A    between atoms: _257  and  _258
REMARK  100  A    between atoms: _260  and  _262
REMARK  101  A    between atoms: _262  and  _263
REMARK  102  A    between atoms: _262  and  _265
REMARK  103  A    between atoms: _265  and  _266
REMARK  104  A    between atoms: _269  and  _271
REMARK  105  A    between atoms: _271  and  _272
REMARK  106  A    between atoms: _271  and  _274
REMARK  107  A    between atoms: _274  and  _275
REMARK  108  A    between atoms: _275  and  _496
REMARK  109  A    between atoms: _276  and  _278
REMARK  110  A    between atoms: _278  and  _279
REMARK  111  A    between atoms: _278  and  _281
REMARK  112  A    between atoms: _281  and  _282
REMARK  113  A    between atoms: _285  and  _287
REMARK  114  A    between atoms: _287  and  _288
REMARK  115  A    between atoms: _287  and  _290
REMARK  116  A    between atoms: _290  and  _291
REMARK  117  A    between atoms: _296  and  _297
REMARK  118  A    between atoms: _299  and  _301
REMARK  119  A    between atoms: _301  and  _302
REMARK  120  A    between atoms: _301  and  _304
REMARK  121  A    between atoms: _304  and  _305
REMARK  122  A    between atoms: _310  and  _311
REMARK  123  A    between atoms: _313  and  _315
REMARK  124  A    between atoms: _315  and  _316
REMARK  125  A    between atoms: _315  and  _318
REMARK  126  A    between atoms: _318  and  _319
REMARK  127  A    between atoms: _319  and  _320
REMARK  128  A    between atoms: _323  and  _325
REMARK  129  A    between atoms: _325  and  _326
REMARK  130  A    between atoms: _325  and  _328
REMARK  131  A    between atoms: _328  and  _329
REMARK  132  A    between atoms: _329  and  _330
REMARK  133  A    between atoms: _330  and  _331
REMARK  134  A    between atoms: _331  and  _332
REMARK  135  A    between atoms: _336  and  _338
REMARK  136  A    between atoms: _338  and  _339
REMARK  137  A    between atoms: _338  and  _341
REMARK  138  A    between atoms: _341  and  _342
REMARK  139  A    between atoms: _347  and  _348
REMARK  140  A    between atoms: _350  and  _352
REMARK  141  A    between atoms: _352  and  _353
REMARK  142  A    between atoms: _352  and  _355
REMARK  143  A    between atoms: _355  and  _356
REMARK  144  A    between atoms: _361  and  _363
REMARK  145  A    between atoms: _363  and  _364
REMARK  146  A    between atoms: _363  and  _366
REMARK  147  A    between atoms: _366  and  _367
REMARK  148  A    between atoms: _370  and  _372
REMARK  149  A    between atoms: _372  and  _373
REMARK  150  A    between atoms: _372  and  _375
REMARK  151  A    between atoms: _375  and  _376
REMARK  152  A    between atoms: _381  and  _383
REMARK  153  A    between atoms: _383  and  _384
REMARK  154  A    between atoms: _383  and  _386
REMARK  155  A    between atoms: _386  and  _387
REMARK  156  A    between atoms: _397  and  _399
REMARK  157  A    between atoms: _399  and  _400
REMARK  158  A    between atoms: _399  and  _402
REMARK  159  A    between atoms: _402  and  _403
REMARK  160  A    between atoms: _409  and  _411
REMARK  161  A    between atoms: _411  and  _412
REMARK  162  A    between atoms: _411  and  _414
REMARK  163  A    between atoms: _414  and  _415
REMARK  164  A    between atoms: _418  and  _420
REMARK  165  A    between atoms: _420  and  _421
REMARK  166  A    between atoms: _420  and  _423
REMARK  167  A    between atoms: _423  and  _424
REMARK  168  A    between atoms: _424  and  _425
REMARK  169  A    between atoms: _425  and  _426
REMARK  170  A    between atoms: _435  and  _437
REMARK  171  A    between atoms: _437  and  _438
REMARK  172  A    between atoms: _437  and  _440
REMARK  173  A    between atoms: _440  and  _441
REMARK  174  A    between atoms: _446  and  _448
REMARK  175  A    between atoms: _448  and  _449
REMARK  176  A    between atoms: _448  and  _451
REMARK  177  A    between atoms: _451  and  _452
REMARK  178  A    between atoms: _452  and  _453
REMARK  179  A    between atoms: _453  and  _454
REMARK  180  A    between atoms: _463  and  _465
REMARK  181  A    between atoms: _465  and  _466
REMARK  182  A    between atoms: _469  and  _471
REMARK  183  A    between atoms: _471  and  _472
REMARK  184  A    between atoms: _474  and  _476
REMARK  185  A    between atoms: _476  and  _477
REMARK  186  A    between atoms: _476  and  _479
REMARK  187  A    between atoms: _479  and  _480
REMARK  188  A    between atoms: _490  and  _492
REMARK  189  A    between atoms: _492  and  _493
REMARK  190  A    between atoms: _492  and  _495
REMARK  191  A    between atoms: _495  and  _496
REMARK  192  A    between atoms: _497  and  _499
REMARK  193  A    between atoms: _499  and  _500
REMARK  194  A    between atoms: _503  and  _505
REMARK  195  A    between atoms: _505  and  _506
REMARK  196  A    between atoms: _505  and  _508
REMARK  197  A    between atoms: _508  and  _509
REMARK  198  A    between atoms: _512  and  _514
REMARK  199  A    between atoms: _514  and  _515
REMARK  200  A    between atoms: _514  and  _517
REMARK  201  A    between atoms: _517  and  _518
REMARK  202  A    between atoms: _523  and  _524
REMARK  203  A    between atoms: _526  and  _528
REMARK  204  A    between atoms: _528  and  _529
REMARK  205  A    between atoms: _528  and  _531
REMARK  206  A    between atoms: _531  and  _532
REMARK  207  A    between atoms: _534  and  _536
REMARK  208  A    between atoms: _536  and  _537
REMARK  209  A    between atoms: _536  and  _539
REMARK  210  A    between atoms: _539  and  _540
REMARK  211  A    between atoms: _546  and  _548
REMARK  212  A    between atoms: _548  and  _549
REMARK  213  A    between atoms: _548  and  _551
REMARK  214  A    between atoms: _551  and  _552
REMARK  215  A    between atoms: _555  and  _557
REMARK  216  A    between atoms: _557  and  _558
REMARK  217  A    between atoms: _557  and  _560
REMARK  218  A    between atoms: _560  and  _561
REMARK  219  A    between atoms: _563  and  _565
REMARK  220  A    between atoms: _565  and  _566
REMARK  221  A    between atoms: _565  and  _568
REMARK  222  A    between atoms: _568  and  _569
REMARK  223  A    between atoms: _574  and  _576
REMARK  224  A    between atoms: _576  and  _577
REMARK  225  A    between atoms: _576  and  _579
REMARK  226  A    between atoms: _579  and  _580
REMARK  227  A    between atoms: _585  and  _587
REMARK  228  A    between atoms: _587  and  _588
REMARK  229  A    between atoms: _587  and  _590
REMARK  230  A    between atoms: _590  and  _591
REMARK  231  A    between atoms: _594  and  _596
REMARK  232  A    between atoms: _596  and  _597
REMARK  233  A    between atoms: _600  and  _602
REMARK  234  A    between atoms: _602  and  _603
REMARK  235  A    between atoms: _602  and  _605
REMARK  236  A    between atoms: _605  and  _606
REMARK  237  A    between atoms: _611  and  _612
REMARK  238  A    between atoms: _614  and  _616
REMARK  239  A    between atoms: _616  and  _617
REMARK  240  A    between atoms: _616  and  _619
REMARK  241  A    between atoms: _619  and  _620
REMARK  242  A    between atoms: _625  and  _626
REMARK  243  A    between atoms: _628  and  _630
REMARK  244  A    between atoms: _630  and  _631
REMARK  245  A    between atoms: _630  and  _633
REMARK  246  A    between atoms: _636  and  _638
REMARK  247  A    between atoms: _638  and  _639
REMARK  248  A    between atoms: _638  and  _641
REMARK  249  A    between atoms: _641  and  _642
REMARK  250  A    between atoms: _647  and  _649
REMARK  251  A    between atoms: _649  and  _650
REMARK  252  A    between atoms: _653  and  _655
REMARK  253  A    between atoms: _655  and  _656
REMARK  254  A    between atoms: _655  and  _658
REMARK  255  A    between atoms: _658  and  _659
REMARK  256  A    between atoms: _659  and  _660
REMARK  257  A    between atoms: _660  and  _661
REMARK  258  A    between atoms: _670  and  _672
REMARK  259  A    between atoms: _672  and  _673
REMARK  260  A    between atoms: _672  and  _675
REMARK  261  A    between atoms: _675  and  _676
REMARK  262  A    between atoms: _679  and  _681
REMARK  263  A    between atoms: _681  and  _682
REMARK  264  A    between atoms: _681  and  _684
REMARK  265  A    between atoms: _684  and  _685
REMARK  266  A    between atoms: _688  and  _690
REMARK  267  A    between atoms: _690  and  _691
REMARK  268  A    between atoms: _690  and  _693
REMARK  269  A    between atoms: _693  and  _694
REMARK                            x       y       z     vdW  Elec       q    Type
REMARK                         _______ _______ _______ _____ _____    ______ ____
ROOT
ATOM      1  O   HOH     1       1.354  21.775  18.979  0.00  0.00    +0.000 OA
ENDROOT
TORSDOF 0
REMARK  Name = ../refined-set-2016/1b3f/1b3f_pocket.pdb
REMARK  269 active torsions:
REMARK  status: ('A' for Active; 'I' for Inactive)
REMARK    1  A    between atoms: _1  and  _3
REMARK    2  A    between atoms: _3  and  _4
REMARK    3  A    between atoms: _3  and  _6
REMARK    4  A    between atoms: _6  and  _7
REMARK    5  A    between atoms: _12  and  _14
REMARK    6  A    between atoms: _14  and  _15
REMARK    7  A    between atoms: _17  and  _19
REMARK    8  A    between atoms: _19  and  _20
REMARK    9  A    between atoms: _19  and  _22
REMARK   10  A    between atoms: _22  and  _23
REMARK   11  A    between atoms: _25  and  _27
REMARK   12  A    between atoms: _27  and  _28
REMARK   13  A    between atoms: _27  and  _30
REMARK   14  A    between atoms: _30  and  _31
REMARK   15  A    between atoms: _31  and  _32
REMARK   16  A    between atoms: _37  and  _39
REMARK   17  A    between atoms: _39  and  _40
REMARK   18  A    between atoms: _39  and  _42
REMARK   19  A    between atoms: _42  and  _43
REMARK   20  A    between atoms: _46  and  _48
REMARK   21  A    between atoms: _48  and  _49
REMARK   22  A    between atoms: _48  and  _51
REMARK   23  A    between atoms: _52  and  _53
REMARK   24  A    between atoms: _56  and  _58
REMARK   25  A    between atoms: _58  and  _59
REMARK   26  A    between atoms: _61  and  _63
REMARK   27  A    between atoms: _63  and  _64
REMARK   28  A    between atoms: _63  and  _66
REMARK   29  A    between atoms: _70  and  _71
REMARK   30  A    between atoms: _76  and  _78
REMARK   31  A    between atoms: _78  and  _79
REMARK   32  A    between atoms: _78  and  _81
REMARK   33  A    between atoms: _81  and  _82
REMARK   34  A    between atoms: _82  and  _83
REMARK   35  A    between atoms: _86  and  _88
REMARK   36  A    between atoms: _88  and  _89
REMARK   37  A    between atoms: _88  and  _91
REMARK   38  A    between atoms: _91  and  _92
REMARK   39  A    between atoms: _94  and  _96
REMARK   40  A    between atoms: _96  and  _97
REMARK   41  A    between atoms: _96  and  _99
REMARK   42  A    between atoms: _99  and  _100
REMARK   43  A    between atoms: _105  and  _107
REMARK   44  A    between atoms: _107  and  _108
REMARK   45  A    between atoms: _107  and  _110
REMARK   46  A    between atoms: _110  and  _111
REMARK   47  A    between atoms: _111  and  _112
REMARK   48  A    between atoms: _112  and  _113
REMARK   49  A    between atoms: _123  and  _124
REMARK   50  A    between atoms: _129  and  _131
REMARK   51  A    between atoms: _131  and  _132
REMARK   52  A    between atoms: _131  and  _134
REMARK   53  A    between atoms: _134  and  _135
REMARK   54  A    between atoms: _140  and  _141
REMARK   55  A    between atoms: _143  and  _145
REMARK   56  A    between atoms: _145  and  _146
REMARK   57  A    between atoms: _145  and  _148
REMARK   58  A    between atoms: _148  and  _149
REMARK   59  A    between atoms: _154  and  _155
REMARK   60  A    between atoms: _157  and  _159
REMARK   61  A    between atoms: _159  and  _160
REMARK   62  A    between atoms: _159  and  _162
REMARK   63  A    between atoms: _165  and  _167
REMARK   64  A    between atoms: _167  and  _168
REMARK   65  A    between atoms: _167  and  _170
REMARK   66  A    between atoms: _170  and  _171
REMARK   67  A    between atoms: _177  and  _178
REMARK   68  A    between atoms: _183  and  _185
REMARK   69  A    between atoms: _185  and  _186
REMARK   70  A    between atoms: _185  and  _188
REMARK   71  A    between atoms: _188  and  _189
REMARK   72  A    between atoms: _191  and  _193
REMARK   73  A    between atoms: _193  and  _194
REMARK   74  A    between atoms: _193  and  _196
REMARK   75  A    between atoms: _196  and  _197
REMARK   76  A    between atoms: _197  and  _198
REMARK   77  A    between atoms: _201  and  _203
REMARK   78  A    between atoms: _203  and  _204
REMARK   79  A    between atoms: _203  and  _206
REMARK   80  A    between atoms: _206  and  _207
REMARK   81  A    between atoms: _212  and  _213
REMARK   82  A    between atoms: _215  and  _217
REMARK   83  A    between atoms: _217  and  _218
REMARK   84  A    between atoms: _217  and  _220
REMARK   85  A    between atoms: _220  and  _221
REMARK   86  A    between atoms: _226  and  _228
REMARK   87  A    between atoms: _228  and  _229
REMARK   88  A    between atoms: _228  and  _231
REMARK   89  A    between atoms: _231  and  _232
REMARK   90  A    between atoms: _237  and  _239
REMARK   91  A    between atoms: _239  and  _240
REMARK   92  A    between atoms: _239  and  _242
REMARK   93  A    between atoms: _242  and  _243
REMARK   94  A    between atoms: _243  and  _244
REMARK   95  A    between atoms: _246  and  _248
REMARK   96  A    between atoms: _248  and  _249
REMARK   97  A    between atoms: _248  and  _251
REMARK   98  A    between atoms: _251  and  _252
REMARK   99  A    between atoms: _257  and  _258
REMARK  100  A    between atoms: _260  and  _262
REMARK  101  A    between atoms: _262  and  _263
REMARK  102  A    between atoms: _262  and  _265
REMARK  103  A    between atoms: _265  and  _266
REMARK  104  A    between atoms: _269  and  _271
REMARK  105  A    between atoms: _271  and  _272
REMARK  106  A    between atoms: _271  and  _274
REMARK  107  A    between atoms: _274  and  _275
REMARK  108  A    between atoms: _275  and  _496
REMARK  109  A    between atoms: _276  and  _278
REMARK  110  A    between atoms: _278  and  _279
REMARK  111  A    between atoms: _278  and  _281
REMARK  112  A    between atoms: _281  and  _282
REMARK  113  A    between atoms: _285  and  _287
REMARK  114  A    between atoms: _287  and  _288
REMARK  115  A    between atoms: _287  and  _290
REMARK  116  A    between atoms: _290  and  _291
REMARK  117  A    between atoms: _296  and  _297
REMARK  118  A    between atoms: _299  and  _301
REMARK  119  A    between atoms: _301  and  _302
REMARK  120  A    between atoms: _301  and  _304
REMARK  121  A    between atoms: _304  and  _305
REMARK  122  A    between atoms: _310  and  _311
REMARK  123  A    between atoms: _313  and  _315
REMARK  124  A    between atoms: _315  and  _316
REMARK  125  A    between atoms: _315  and  _318
REMARK  126  A    between atoms: _318  and  _319
REMARK  127  A    between atoms: _319  and  _320
REMARK  128  A    between atoms: _323  and  _325
REMARK  129  A    between atoms: _325  and  _326
REMARK  130  A    between atoms: _325  and  _328
REMARK  131  A    between atoms: _328  and  _329
REMARK  132  A    between atoms: _329  and  _330
REMARK  133  A    between atoms: _330  and  _331
REMARK  134  A    between atoms: _331  and  _332
REMARK  135  A    between atoms: _336  and  _338
REMARK  136  A    between atoms: _338  and  _339
REMARK  137  A    between atoms: _338  and  _341
REMARK  138  A    between atoms: _341  and  _342
REMARK  139  A    between atoms: _347  and  _348
REMARK  140  A    between atoms: _350  and  _352
REMARK  141  A    between atoms: _352  and  _353
REMARK  142  A    between atoms: _352  and  _355
REMARK  143  A    between atoms: _355  and  _356
REMARK  144  A    between atoms: _361  and  _363
REMARK  145  A    between atoms: _363  and  _364
REMARK  146  A    between atoms: _363  and  _366
REMARK  147  A    between atoms: _366  and  _367
REMARK  148  A    between atoms: _370  and  _372
REMARK  149  A    between atoms: _372  and  _373
REMARK  150  A    between atoms: _372  and  _375
REMARK  151  A    between atoms: _375  and  _376
REMARK  152  A    between atoms: _381  and  _383
REMARK  153  A    between atoms: _383  and  _384
REMARK  154  A    between atoms: _383  and  _386
REMARK  155  A    between atoms: _386  and  _387
REMARK  156  A    between atoms: _397  and  _399
REMARK  157  A    between atoms: _399  and  _400
REMARK  158  A    between atoms: _399  and  _402
REMARK  159  A    between atoms: _402  and  _403
REMARK  160  A    between atoms: _409  and  _411
REMARK  161  A    between atoms: _411  and  _412
REMARK  162  A    between atoms: _411  and  _414
REMARK  163  A    between atoms: _414  and  _415
REMARK  164  A    between atoms: _418  and  _420
REMARK  165  A    between atoms: _420  and  _421
REMARK  166  A    between atoms: _420  and  _423
REMARK  167  A    between atoms: _423  and  _424
REMARK  168  A    between atoms: _424  and  _425
REMARK  169  A    between atoms: _425  and  _426
REMARK  170  A    between atoms: _435  and  _437
REMARK  171  A    between atoms: _437  and  _438
REMARK  172  A    between atoms: _437  and  _440
REMARK  173  A    between atoms: _440  and  _441
REMARK  174  A    between atoms: _446  and  _448
REMARK  175  A    between atoms: _448  and  _449
REMARK  176  A    between atoms: _448  and  _451
REMARK  177  A    between atoms: _451  and  _452
REMARK  178  A    between atoms: _452  and  _453
REMARK  179  A    between atoms: _453  and  _454
REMARK  180  A    between atoms: _463  and  _465
REMARK  181  A    between atoms: _465  and  _466
REMARK  182  A    between atoms: _469  and  _471
REMARK  183  A    between atoms: _471  and  _472
REMARK  184  A    between atoms: _474  and  _476
REMARK  185  A    between atoms: _476  and  _477
REMARK  186  A    between atoms: _476  and  _479
REMARK  187  A    between atoms: _479  and  _480
REMARK  188  A    between atoms: _490  and  _492
REMARK  189  A    between atoms: _492  and  _493
REMARK  190  A    between atoms: _492  and  _495
REMARK  191  A    between atoms: _495  and  _496
REMARK  192  A    between atoms: _497  and  _499
REMARK  193  A    between atoms: _499  and  _500
REMARK  194  A    between atoms: _503  and  _505
REMARK  195  A    between atoms: _505  and  _506
REMARK  196  A    between atoms: _505  and  _508
REMARK  197  A    between atoms: _508  and  _509
REMARK  198  A    between atoms: _512  and  _514
REMARK  199  A    between atoms: _514  and  _515
REMARK  200  A    between atoms: _514  and  _517
REMARK  201  A    between atoms: _517  and  _518
REMARK  202  A    between atoms: _523  and  _524
REMARK  203  A    between atoms: _526  and  _528
REMARK  204  A    between atoms: _528  and  _529
REMARK  205  A    between atoms: _528  and  _531
REMARK  206  A    between atoms: _531  and  _532
REMARK  207  A    between atoms: _534  and  _536
REMARK  208  A    between atoms: _536  and  _537
REMARK  209  A    between atoms: _536  and  _539
REMARK  210  A    between atoms: _539  and  _540
REMARK  211  A    between atoms: _546  and  _548
REMARK  212  A    between atoms: _548  and  _549
REMARK  213  A    between atoms: _548  and  _551
REMARK  214  A    between atoms: _551  and  _552
REMARK  215  A    between atoms: _555  and  _557
REMARK  216  A    between atoms: _557  and  _558
REMARK  217  A    between atoms: _557  and  _560
REMARK  218  A    between atoms: _560  and  _561
REMARK  219  A    between atoms: _563  and  _565
REMARK  220  A    between atoms: _565  and  _566
REMARK  221  A    between atoms: _565  and  _568
REMARK  222  A    between atoms: _568  and  _569
REMARK  223  A    between atoms: _574  and  _576
REMARK  224  A    between atoms: _576  and  _577
REMARK  225  A    between atoms: _576  and  _579
REMARK  226  A    between atoms: _579  and  _580
REMARK  227  A    between atoms: _585  and  _587
REMARK  228  A    between atoms: _587  and  _588
REMARK  229  A    between atoms: _587  and  _590
REMARK  230  A    between atoms: _590  and  _591
REMARK  231  A    between atoms: _594  and  _596
REMARK  232  A    between atoms: _596  and  _597
REMARK  233  A    between atoms: _600  and  _602
REMARK  234  A    between atoms: _602  and  _603
REMARK  235  A    between atoms: _602  and  _605
REMARK  236  A    between atoms: _605  and  _606
REMARK  237  A    between atoms: _611  and  _612
REMARK  238  A    between atoms: _614  and  _616
REMARK  239  A    between atoms: _616  and  _617
REMARK  240  A    between atoms: _616  and  _619
REMARK  241  A    between atoms: _619  and  _620
REMARK  242  A    between atoms: _625  and  _626
REMARK  243  A    between atoms: _628  and  _630
REMARK  244  A    between atoms: _630  and  _631
REMARK  245  A    between atoms: _630  and  _633
REMARK  246  A    between atoms: _636  and  _638
REMARK  247  A    between atoms: _638  and  _639
REMARK  248  A    between atoms: _638  and  _641
REMARK  249  A    between atoms: _641  and  _642
REMARK  250  A    between atoms: _647  and  _649
REMARK  251  A    between atoms: _649  and  _650
REMARK  252  A    between atoms: _653  and  _655
REMARK  253  A    between atoms: _655  and  _656
REMARK  254  A    between atoms: _655  and  _658
REMARK  255  A    between atoms: _658  and  _659
REMARK  256  A    between atoms: _659  and  _660
REMARK  257  A    between atoms: _660  and  _661
REMARK  258  A    between atoms: _670  and  _672
REMARK  259  A    between atoms: _672  and  _673
REMARK  260  A    between atoms: _672  and  _675
REMARK  261  A    between atoms: _675  and  _676
REMARK  262  A    between atoms: _679  and  _681
REMARK  263  A    between atoms: _681  and  _682
REMARK  264  A    between atoms: _681  and  _684
REMARK  265  A    between atoms: _684  and  _685
REMARK  266  A    between atoms: _688  and  _690
REMARK  267  A    between atoms: _690  and  _691
REMARK  268  A    between atoms: _690  and  _693
REMARK  269  A    between atoms: _693  and  _694
REMARK                            x       y       z     vdW  Elec       q    Type
REMARK                         _______ _______ _______ _____ _____    ______ ____
ROOT
ATOM      1  O   HOH     1      -3.994  22.717  15.041  0.00  0.00    +0.000 OA
ENDROOT
TORSDOF 0
REMARK  Name = ../refined-set-2016/1b3f/1b3f_pocket.pdb
REMARK  269 active torsions:
REMARK  status: ('A' for Active; 'I' for Inactive)
REMARK    1  A    between atoms: _1  and  _3
REMARK    2  A    between atoms: _3  and  _4
REMARK    3  A    between atoms: _3  and  _6
REMARK    4  A    between atoms: _6  and  _7
REMARK    5  A    between atoms: _12  and  _14
REMARK    6  A    between atoms: _14  and  _15
REMARK    7  A    between atoms: _17  and  _19
REMARK    8  A    between atoms: _19  and  _20
REMARK    9  A    between atoms: _19  and  _22
REMARK   10  A    between atoms: _22  and  _23
REMARK   11  A    between atoms: _25  and  _27
REMARK   12  A    between atoms: _27  and  _28
REMARK   13  A    between atoms: _27  and  _30
REMARK   14  A    between atoms: _30  and  _31
REMARK   15  A    between atoms: _31  and  _32
REMARK   16  A    between atoms: _37  and  _39
REMARK   17  A    between atoms: _39  and  _40
REMARK   18  A    between atoms: _39  and  _42
REMARK   19  A    between atoms: _42  and  _43
REMARK   20  A    between atoms: _46  and  _48
REMARK   21  A    between atoms: _48  and  _49
REMARK   22  A    between atoms: _48  and  _51
REMARK   23  A    between atoms: _52  and  _53
REMARK   24  A    between atoms: _56  and  _58
REMARK   25  A    between atoms: _58  and  _59
REMARK   26  A    between atoms: _61  and  _63
REMARK   27  A    between atoms: _63  and  _64
REMARK   28  A    between atoms: _63  and  _66
REMARK   29  A    between atoms: _70  and  _71
REMARK   30  A    between atoms: _76  and  _78
REMARK   31  A    between atoms: _78  and  _79
REMARK   32  A    between atoms: _78  and  _81
REMARK   33  A    between atoms: _81  and  _82
REMARK   34  A    between atoms: _82  and  _83
REMARK   35  A    between atoms: _86  and  _88
REMARK   36  A    between atoms: _88  and  _89
REMARK   37  A    between atoms: _88  and  _91
REMARK   38  A    between atoms: _91  and  _92
REMARK   39  A    between atoms: _94  and  _96
REMARK   40  A    between atoms: _96  and  _97
REMARK   41  A    between atoms: _96  and  _99
REMARK   42  A    between atoms: _99  and  _100
REMARK   43  A    between atoms: _105  and  _107
REMARK   44  A    between atoms: _107  and  _108
REMARK   45  A    between atoms: _107  and  _110
REMARK   46  A    between atoms: _110  and  _111
REMARK   47  A    between atoms: _111  and  _112
REMARK   48  A    between atoms: _112  and  _113
REMARK   49  A    between atoms: _123  and  _124
REMARK   50  A    between atoms: _129  and  _131
REMARK   51  A    between atoms: _131  and  _132
REMARK   52  A    between atoms: _131  and  _134
REMARK   53  A    between atoms: _134  and  _135
REMARK   54  A    between atoms: _140  and  _141
REMARK   55  A    between atoms: _143  and  _145
REMARK   56  A    between atoms: _145  and  _146
REMARK   57  A    between atoms: _145  and  _148
REMARK   58  A    between atoms: _148  and  _149
REMARK   59  A    between atoms: _154  and  _155
REMARK   60  A    between atoms: _157  and  _159
REMARK   61  A    between atoms: _159  and  _160
REMARK   62  A    between atoms: _159  and  _162
REMARK   63  A    between atoms: _165  and  _167
REMARK   64  A    between atoms: _167  and  _168
REMARK   65  A    between atoms: _167  and  _170
REMARK   66  A    between atoms: _170  and  _171
REMARK   67  A    between atoms: _177  and  _178
REMARK   68  A    between atoms: _183  and  _185
REMARK   69  A    between atoms: _185  and  _186
REMARK   70  A    between atoms: _185  and  _188
REMARK   71  A    between atoms: _188  and  _189
REMARK   72  A    between atoms: _191  and  _193
REMARK   73  A    between atoms: _193  and  _194
REMARK   74  A    between atoms: _193  and  _196
REMARK   75  A    between atoms: _196  and  _197
REMARK   76  A    between atoms: _197  and  _198
REMARK   77  A    between atoms: _201  and  _203
REMARK   78  A    between atoms: _203  and  _204
REMARK   79  A    between atoms: _203  and  _206
REMARK   80  A    between atoms: _206  and  _207
REMARK   81  A    between atoms: _212  and  _213
REMARK   82  A    between atoms: _215  and  _217
REMARK   83  A    between atoms: _217  and  _218
REMARK   84  A    between atoms: _217  and  _220
REMARK   85  A    between atoms: _220  and  _221
REMARK   86  A    between atoms: _226  and  _228
REMARK   87  A    between atoms: _228  and  _229
REMARK   88  A    between atoms: _228  and  _231
REMARK   89  A    between atoms: _231  and  _232
REMARK   90  A    between atoms: _237  and  _239
REMARK   91  A    between atoms: _239  and  _240
REMARK   92  A    between atoms: _239  and  _242
REMARK   93  A    between atoms: _242  and  _243
REMARK   94  A    between atoms: _243  and  _244
REMARK   95  A    between atoms: _246  and  _248
REMARK   96  A    between atoms: _248  and  _249
REMARK   97  A    between atoms: _248  and  _251
REMARK   98  A    between atoms: _251  and  _252
REMARK   99  A    between atoms: _257  and  _258
REMARK  100  A    between atoms: _260  and  _262
REMARK  101  A    between atoms: _262  and  _263
REMARK  102  A    between atoms: _262  and  _265
REMARK  103  A    between atoms: _265  and  _266
REMARK  104  A    between atoms: _269  and  _271
REMARK  105  A    between atoms: _271  and  _272
REMARK  106  A    between atoms: _271  and  _274
REMARK  107  A    between atoms: _274  and  _275
REMARK  108  A    between atoms: _275  and  _496
REMARK  109  A    between atoms: _276  and  _278
REMARK  110  A    between atoms: _278  and  _279
REMARK  111  A    between atoms: _278  and  _281
REMARK  112  A    between atoms: _281  and  _282
REMARK  113  A    between atoms: _285  and  _287
REMARK  114  A    between atoms: _287  and  _288
REMARK  115  A    between atoms: _287  and  _290
REMARK  116  A    between atoms: _290  and  _291
REMARK  117  A    between atoms: _296  and  _297
REMARK  118  A    between atoms: _299  and  _301
REMARK  119  A    between atoms: _301  and  _302
REMARK  120  A    between atoms: _301  and  _304
REMARK  121  A    between atoms: _304  and  _305
REMARK  122  A    between atoms: _310  and  _311
REMARK  123  A    between atoms: _313  and  _315
REMARK  124  A    between atoms: _315  and  _316
REMARK  125  A    between atoms: _315  and  _318
REMARK  126  A    between atoms: _318  and  _319
REMARK  127  A    between atoms: _319  and  _320
REMARK  128  A    between atoms: _323  and  _325
REMARK  129  A    between atoms: _325  and  _326
REMARK  130  A    between atoms: _325  and  _328
REMARK  131  A    between atoms: _328  and  _329
REMARK  132  A    between atoms: _329  and  _330
REMARK  133  A    between atoms: _330  and  _331
REMARK  134  A    between atoms: _331  and  _332
REMARK  135  A    between atoms: _336  and  _338
REMARK  136  A    between atoms: _338  and  _339
REMARK  137  A    between atoms: _338  and  _341
REMARK  138  A    between atoms: _341  and  _342
REMARK  139  A    between atoms: _347  and  _348
REMARK  140  A    between atoms: _350  and  _352
REMARK  141  A    between atoms: _352  and  _353
REMARK  142  A    between atoms: _352  and  _355
REMARK  143  A    between atoms: _355  and  _356
REMARK  144  A    between atoms: _361  and  _363
REMARK  145  A    between atoms: _363  and  _364
REMARK  146  A    between atoms: _363  and  _366
REMARK  147  A    between atoms: _366  and  _367
REMARK  148  A    between atoms: _370  and  _372
REMARK  149  A    between atoms: _372  and  _373
REMARK  150  A    between atoms: _372  and  _375
REMARK  151  A    between atoms: _375  and  _376
REMARK  152  A    between atoms: _381  and  _383
REMARK  153  A    between atoms: _383  and  _384
REMARK  154  A    between atoms: _383  and  _386
REMARK  155  A    between atoms: _386  and  _387
REMARK  156  A    between atoms: _397  and  _399
REMARK  157  A    between atoms: _399  and  _400
REMARK  158  A    between atoms: _399  and  _402
REMARK  159  A    between atoms: _402  and  _403
REMARK  160  A    between atoms: _409  and  _411
REMARK  161  A    between atoms: _411  and  _412
REMARK  162  A    between atoms: _411  and  _414
REMARK  163  A    between atoms: _414  and  _415
REMARK  164  A    between atoms: _418  and  _420
REMARK  165  A    between atoms: _420  and  _421
REMARK  166  A    between atoms: _420  and  _423
REMARK  167  A    between atoms: _423  and  _424
REMARK  168  A    between atoms: _424  and  _425
REMARK  169  A    between atoms: _425  and  _426
REMARK  170  A    between atoms: _435  and  _437
REMARK  171  A    between atoms: _437  and  _438
REMARK  172  A    between atoms: _437  and  _440
REMARK  173  A    between atoms: _440  and  _441
REMARK  174  A    between atoms: _446  and  _448
REMARK  175  A    between atoms: _448  and  _449
REMARK  176  A    between atoms: _448  and  _451
REMARK  177  A    between atoms: _451  and  _452
REMARK  178  A    between atoms: _452  and  _453
REMARK  179  A    between atoms: _453  and  _454
REMARK  180  A    between atoms: _463  and  _465
REMARK  181  A    between atoms: _465  and  _466
REMARK  182  A    between atoms: _469  and  _471
REMARK  183  A    between atoms: _471  and  _472
REMARK  184  A    between atoms: _474  and  _476
REMARK  185  A    between atoms: _476  and  _477
REMARK  186  A    between atoms: _476  and  _479
REMARK  187  A    between atoms: _479  and  _480
REMARK  188  A    between atoms: _490  and  _492
REMARK  189  A    between atoms: _492  and  _493
REMARK  190  A    between atoms: _492  and  _495
REMARK  191  A    between atoms: _495  and  _496
REMARK  192  A    between atoms: _497  and  _499
REMARK  193  A    between atoms: _499  and  _500
REMARK  194  A    between atoms: _503  and  _505
REMARK  195  A    between atoms: _505  and  _506
REMARK  196  A    between atoms: _505  and  _508
REMARK  197  A    between atoms: _508  and  _509
REMARK  198  A    between atoms: _512  and  _514
REMARK  199  A    between atoms: _514  and  _515
REMARK  200  A    between atoms: _514  and  _517
REMARK  201  A    between atoms: _517  and  _518
REMARK  202  A    between atoms: _523  and  _524
REMARK  203  A    between atoms: _526  and  _528
REMARK  204  A    between atoms: _528  and  _529
REMARK  205  A    between atoms: _528  and  _531
REMARK  206  A    between atoms: _531  and  _532
REMARK  207  A    between atoms: _534  and  _536
REMARK  208  A    between atoms: _536  and  _537
REMARK  209  A    between atoms: _536  and  _539
REMARK  210  A    between atoms: _539  and  _540
REMARK  211  A    between atoms: _546  and  _548
REMARK  212  A    between atoms: _548  and  _549
REMARK  213  A    between atoms: _548  and  _551
REMARK  214  A    between atoms: _551  and  _552
REMARK  215  A    between atoms: _555  and  _557
REMARK  216  A    between atoms: _557  and  _558
REMARK  217  A    between atoms: _557  and  _560
REMARK  218  A    between atoms: _560  and  _561
REMARK  219  A    between atoms: _563  and  _565
REMARK  220  A    between atoms: _565  and  _566
REMARK  221  A    between atoms: _565  and  _568
REMARK  222  A    between atoms: _568  and  _569
REMARK  223  A    between atoms: _574  and  _576
REMARK  224  A    between atoms: _576  and  _577
REMARK  225  A    between atoms: _576  and  _579
REMARK  226  A    between atoms: _579  and  _580
REMARK  227  A    between atoms: _585  and  _587
REMARK  228  A    between atoms: _587  and  _588
REMARK  229  A    between atoms: _587  and  _590
REMARK  230  A    between atoms: _590  and  _591
REMARK  231  A    between atoms: _594  and  _596
REMARK  232  A    between atoms: _596  and  _597
REMARK  233  A    between atoms: _600  and  _602
REMARK  234  A    between atoms: _602  and  _603
REMARK  235  A    between atoms: _602  and  _605
REMARK  236  A    between atoms: _605  and  _606
REMARK  237  A    between atoms: _611  and  _612
REMARK  238  A    between atoms: _614  and  _616
REMARK  239  A    between atoms: _616  and  _617
REMARK  240  A    between atoms: _616  and  _619
REMARK  241  A    between atoms: _619  and  _620
REMARK  242  A    between atoms: _625  and  _626
REMARK  243  A    between atoms: _628  and  _630
REMARK  244  A    between atoms: _630  and  _631
REMARK  245  A    between atoms: _630  and  _633
REMARK  246  A    between atoms: _636  and  _638
REMARK  247  A    between atoms: _638  and  _639
REMARK  248  A    between atoms: _638  and  _641
REMARK  249  A    between atoms: _641  and  _642
REMARK  250  A    between atoms: _647  and  _649
REMARK  251  A    between atoms: _649  and  _650
REMARK  252  A    between atoms: _653  and  _655
REMARK  253  A    between atoms: _655  and  _656
REMARK  254  A    between atoms: _655  and  _658
REMARK  255  A    between atoms: _658  and  _659
REMARK  256  A    between atoms: _659  and  _660
REMARK  257  A    between atoms: _660  and  _661
REMARK  258  A    between atoms: _670  and  _672
REMARK  259  A    between atoms: _672  and  _673
REMARK  260  A    between atoms: _672  and  _675
REMARK  261  A    between atoms: _675  and  _676
REMARK  262  A    between atoms: _679  and  _681
REMARK  263  A    between atoms: _681  and  _682
REMARK  264  A    between atoms: _681  and  _684
REMARK  265  A    between atoms: _684  and  _685
REMARK  266  A    between atoms: _688  and  _690
REMARK  267  A    between atoms: _690  and  _691
REMARK  268  A    between atoms: _690  and  _693
REMARK  269  A    between atoms: _693  and  _694
REMARK                            x       y       z     vdW  Elec       q    Type
REMARK                         _______ _______ _______ _____ _____    ______ ____
ROOT
ATOM      1  O   HOH     1       8.570  13.107   9.762  0.00  0.00    +0.000 OA
ENDROOT
TORSDOF 0
