REMARK  Name = ../refined-set-2016/4fsl/4fsl_pocket.pdb
REMARK  230 active torsions:
REMARK  status: ('A' for Active; 'I' for Inactive)
REMARK    1  A    between atoms: _1  and  _3
REMARK    2  A    between atoms: _3  and  _4
REMARK    3  A    between atoms: _3  and  _6
REMARK    4  A    between atoms: _6  and  _7
REMARK    5  A    between atoms: _9  and  _11
REMARK    6  A    between atoms: _11  and  _12
REMARK    7  A    between atoms: _14  and  _16
REMARK    8  A    between atoms: _16  and  _17
REMARK    9  A    between atoms: _16  and  _19
REMARK   10  A    between atoms: _19  and  _20
REMARK   11  A    between atoms: _20  and  _21
REMARK   12  A    between atoms: _26  and  _28
REMARK   13  A    between atoms: _28  and  _29
REMARK   14  A    between atoms: _31  and  _33
REMARK   15  A    between atoms: _33  and  _34
REMARK   16  A    between atoms: _33  and  _36
REMARK   17  A    between atoms: _36  and  _37
REMARK   18  A    between atoms: _42  and  _43
REMARK   19  A    between atoms: _45  and  _47
REMARK   20  A    between atoms: _47  and  _48
REMARK   21  A    between atoms: _47  and  _50
REMARK   22  A    between atoms: _50  and  _51
REMARK   23  A    between atoms: _54  and  _56
REMARK   24  A    between atoms: _56  and  _57
REMARK   25  A    between atoms: _56  and  _59
REMARK   26  A    between atoms: _62  and  _64
REMARK   27  A    between atoms: _64  and  _65
REMARK   28  A    between atoms: _64  and  _67
REMARK   29  A    between atoms: _67  and  _68
REMARK   30  A    between atoms: _71  and  _73
REMARK   31  A    between atoms: _73  and  _74
REMARK   32  A    between atoms: _73  and  _76
REMARK   33  A    between atoms: _76  and  _77
REMARK   34  A    between atoms: _80  and  _82
REMARK   35  A    between atoms: _82  and  _83
REMARK   36  A    between atoms: _85  and  _87
REMARK   37  A    between atoms: _87  and  _88
REMARK   38  A    between atoms: _87  and  _90
REMARK   39  A    between atoms: _90  and  _91
REMARK   40  A    between atoms: _93  and  _95
REMARK   41  A    between atoms: _95  and  _96
REMARK   42  A    between atoms: _95  and  _98
REMARK   43  A    between atoms: _98  and  _99
REMARK   44  A    between atoms: _101  and  _103
REMARK   45  A    between atoms: _103  and  _104
REMARK   46  A    between atoms: _103  and  _106
REMARK   47  A    between atoms: _106  and  _107
REMARK   48  A    between atoms: _112  and  _114
REMARK   49  A    between atoms: _114  and  _115
REMARK   50  A    between atoms: _114  and  _117
REMARK   51  A    between atoms: _117  and  _118
REMARK   52  A    between atoms: _124  and  _126
REMARK   53  A    between atoms: _126  and  _127
REMARK   54  A    between atoms: _126  and  _129
REMARK   55  A    between atoms: _133  and  _134
REMARK   56  A    between atoms: _139  and  _141
REMARK   57  A    between atoms: _141  and  _142
REMARK   58  A    between atoms: _141  and  _144
REMARK   59  A    between atoms: _144  and  _145
REMARK   60  A    between atoms: _150  and  _151
REMARK   61  A    between atoms: _153  and  _155
REMARK   62  A    between atoms: _155  and  _156
REMARK   63  A    between atoms: _155  and  _158
REMARK   64  A    between atoms: _158  and  _159
REMARK   65  A    between atoms: _162  and  _164
REMARK   66  A    between atoms: _164  and  _165
REMARK   67  A    between atoms: _164  and  _167
REMARK   68  A    between atoms: _167  and  _168
REMARK   69  A    between atoms: _168  and  _169
REMARK   70  A    between atoms: _174  and  _176
REMARK   71  A    between atoms: _176  and  _177
REMARK   72  A    between atoms: _179  and  _181
REMARK   73  A    between atoms: _181  and  _182
REMARK   74  A    between atoms: _181  and  _184
REMARK   75  A    between atoms: _184  and  _185
REMARK   76  A    between atoms: _185  and  _186
REMARK   77  A    between atoms: _186  and  _187
REMARK   78  A    between atoms: _187  and  _188
REMARK   79  A    between atoms: _192  and  _194
REMARK   80  A    between atoms: _194  and  _195
REMARK   81  A    between atoms: _194  and  _197
REMARK   82  A    between atoms: _197  and  _198
REMARK   83  A    between atoms: _208  and  _210
REMARK   84  A    between atoms: _210  and  _211
REMARK   85  A    between atoms: _210  and  _213
REMARK   86  A    between atoms: _213  and  _214
REMARK   87  A    between atoms: _217  and  _219
REMARK   88  A    between atoms: _219  and  _220
REMARK   89  A    between atoms: _219  and  _222
REMARK   90  A    between atoms: _222  and  _223
REMARK   91  A    between atoms: _223  and  _224
REMARK   92  A    between atoms: _224  and  _225
REMARK   93  A    between atoms: _225  and  _226
REMARK   94  A    between atoms: _230  and  _232
REMARK   95  A    between atoms: _232  and  _233
REMARK   96  A    between atoms: _232  and  _235
REMARK   97  A    between atoms: _235  and  _236
REMARK   98  A    between atoms: _242  and  _244
REMARK   99  A    between atoms: _244  and  _245
REMARK  100  A    between atoms: _244  and  _247
REMARK  101  A    between atoms: _247  and  _248
REMARK  102  A    between atoms: _254  and  _256
REMARK  103  A    between atoms: _256  and  _257
REMARK  104  A    between atoms: _256  and  _259
REMARK  105  A    between atoms: _259  and  _260
REMARK  106  A    between atoms: _263  and  _265
REMARK  107  A    between atoms: _265  and  _266
REMARK  108  A    between atoms: _265  and  _268
REMARK  109  A    between atoms: _268  and  _269
REMARK  110  A    between atoms: _274  and  _276
REMARK  111  A    between atoms: _276  and  _277
REMARK  112  A    between atoms: _276  and  _279
REMARK  113  A    between atoms: _279  and  _280
REMARK  114  A    between atoms: _282  and  _284
REMARK  115  A    between atoms: _284  and  _285
REMARK  116  A    between atoms: _284  and  _287
REMARK  117  A    between atoms: _287  and  _288
REMARK  118  A    between atoms: _298  and  _300
REMARK  119  A    between atoms: _300  and  _301
REMARK  120  A    between atoms: _303  and  _305
REMARK  121  A    between atoms: _305  and  _306
REMARK  122  A    between atoms: _305  and  _308
REMARK  123  A    between atoms: _308  and  _309
REMARK  124  A    between atoms: _312  and  _314
REMARK  125  A    between atoms: _314  and  _315
REMARK  126  A    between atoms: _314  and  _317
REMARK  127  A    between atoms: _317  and  _318
REMARK  128  A    between atoms: _321  and  _323
REMARK  129  A    between atoms: _323  and  _324
REMARK  130  A    between atoms: _326  and  _328
REMARK  131  A    between atoms: _328  and  _329
REMARK  132  A    between atoms: _328  and  _331
REMARK  133  A    between atoms: _331  and  _332
REMARK  134  A    between atoms: _335  and  _337
REMARK  135  A    between atoms: _337  and  _338
REMARK  136  A    between atoms: _341  and  _343
REMARK  137  A    between atoms: _343  and  _344
REMARK  138  A    between atoms: _343  and  _346
REMARK  139  A    between atoms: _346  and  _347
REMARK  140  A    between atoms: _350  and  _352
REMARK  141  A    between atoms: _352  and  _353
REMARK  142  A    between atoms: _352  and  _355
REMARK  143  A    between atoms: _355  and  _356
REMARK  144  A    between atoms: _361  and  _362
REMARK  145  A    between atoms: _364  and  _366
REMARK  146  A    between atoms: _366  and  _367
REMARK  147  A    between atoms: _366  and  _369
REMARK  148  A    between atoms: _369  and  _370
REMARK  149  A    between atoms: _375  and  _376
REMARK  150  A    between atoms: _378  and  _380
REMARK  151  A    between atoms: _380  and  _381
REMARK  152  A    between atoms: _380  and  _383
REMARK  153  A    between atoms: _383  and  _384
REMARK  154  A    between atoms: _387  and  _389
REMARK  155  A    between atoms: _389  and  _390
REMARK  156  A    between atoms: _389  and  _392
REMARK  157  A    between atoms: _392  and  _393
REMARK  158  A    between atoms: _393  and  _394
REMARK  159  A    between atoms: _394  and  _395
REMARK  160  A    between atoms: _395  and  _396
REMARK  161  A    between atoms: _400  and  _402
REMARK  162  A    between atoms: _402  and  _403
REMARK  163  A    between atoms: _402  and  _405
REMARK  164  A    between atoms: _405  and  _406
REMARK  165  A    between atoms: _409  and  _411
REMARK  166  A    between atoms: _411  and  _412
REMARK  167  A    between atoms: _411  and  _414
REMARK  168  A    between atoms: _417  and  _419
REMARK  169  A    between atoms: _419  and  _420
REMARK  170  A    between atoms: _419  and  _422
REMARK  171  A    between atoms: _422  and  _423
REMARK  172  A    between atoms: _426  and  _428
REMARK  173  A    between atoms: _428  and  _429
REMARK  174  A    between atoms: _428  and  _431
REMARK  175  A    between atoms: _431  and  _432
REMARK  176  A    between atoms: _434  and  _436
REMARK  177  A    between atoms: _436  and  _437
REMARK  178  A    between atoms: _439  and  _441
REMARK  179  A    between atoms: _441  and  _442
REMARK  180  A    between atoms: _441  and  _444
REMARK  181  A    between atoms: _444  and  _445
REMARK  182  A    between atoms: _448  and  _450
REMARK  183  A    between atoms: _450  and  _451
REMARK  184  A    between atoms: _450  and  _453
REMARK  185  A    between atoms: _453  and  _454
REMARK  186  A    between atoms: _457  and  _459
REMARK  187  A    between atoms: _459  and  _460
REMARK  188  A    between atoms: _459  and  _462
REMARK  189  A    between atoms: _462  and  _463
REMARK  190  A    between atoms: _468  and  _470
REMARK  191  A    between atoms: _470  and  _471
REMARK  192  A    between atoms: _470  and  _473
REMARK  193  A    between atoms: _473  and  _474
REMARK  194  A    between atoms: _474  and  _475
REMARK  195  A    between atoms: _475  and  _476
REMARK  196  A    between atoms: _485  and  _487
REMARK  197  A    between atoms: _487  and  _488
REMARK  198  A    between atoms: _487  and  _490
REMARK  199  A    between atoms: _490  and  _491
REMARK  200  A    between atoms: _493  and  _495
REMARK  201  A    between atoms: _495  and  _496
REMARK  202  A    between atoms: _495  and  _498
REMARK  203  A    between atoms: _498  and  _499
REMARK  204  A    between atoms: _499  and  _500
REMARK  205  A    between atoms: _505  and  _507
REMARK  206  A    between atoms: _507  and  _508
REMARK  207  A    between atoms: _507  and  _510
REMARK  208  A    between atoms: _510  and  _511
REMARK  209  A    between atoms: _513  and  _515
REMARK  210  A    between atoms: _515  and  _516
REMARK  211  A    between atoms: _515  and  _518
REMARK  212  A    between atoms: _518  and  _519
REMARK  213  A    between atoms: _521  and  _523
REMARK  214  A    between atoms: _523  and  _524
REMARK  215  A    between atoms: _523  and  _526
REMARK  216  A    between atoms: _526  and  _527
REMARK  217  A    between atoms: _530  and  _532
REMARK  218  A    between atoms: _532  and  _533
REMARK  219  A    between atoms: _535  and  _537
REMARK  220  A    between atoms: _537  and  _538
REMARK  221  A    between atoms: _537  and  _540
REMARK  222  A    between atoms: _540  and  _541
REMARK  223  A    between atoms: _544  and  _546
REMARK  224  A    between atoms: _546  and  _547
REMARK  225  A    between atoms: _546  and  _549
REMARK  226  A    between atoms: _552  and  _554
REMARK  227  A    between atoms: _554  and  _555
REMARK  228  A    between atoms: _554  and  _557
REMARK  229  A    between atoms: _557  and  _558
REMARK  230  A    between atoms: _558  and  _559
REMARK                            x       y       z     vdW  Elec       q    Type
REMARK                         _______ _______ _______ _____ _____    ______ ____
ROOT
ATOM      1  CA  GLN A   3       5.732   9.723  35.275  0.00  0.00    +0.149 C 
ENDROOT
BRANCH   1   3
ATOM      2  C   GLY A   2       6.316  11.645  33.870  0.00  0.00    +0.243 C 
ATOM      3  N   GLN A   3       6.534  10.913  34.960  0.00  0.00    -0.297 N 
ATOM      4  H   GLN A   3       7.297  11.192  35.610  0.00  0.00    +0.150 HD
ATOM      5  O   GLY A   2       5.400  11.411  33.076  0.00  0.00    -0.273 OA
BRANCH   2   6
ATOM      6  CA  GLY A   2       7.262  12.809  33.629  0.00  0.00    +0.176 C 
BRANCH   6   9
ATOM      7  C   SER A   1       6.925  14.264  35.564  0.00  0.00    +0.241 C 
ATOM      8  O   SER A   1       5.727  14.424  35.309  0.00  0.00    -0.274 OA
ATOM      9  N   GLY A   2       7.729  13.494  34.834  0.00  0.00    -0.295 N 
ATOM     10  H   GLY A   2       8.719  13.376  35.129  0.00  0.00    +0.150 HD
BRANCH   7  11
ATOM     11  CA  SER A   1       7.563  14.966  36.764  0.00  0.00    +0.174 C 
BRANCH  11  12
ATOM     12  N   SER A   1       8.577  14.163  37.463  0.00  0.00    -0.236 NA
ATOM     13  H   SER A   1       9.538  14.546  37.569  0.00  0.00    +0.142 HD
ENDBRANCH  11  12
BRANCH  11  14
ATOM     14  CB  SER A   1       8.142  16.315  36.329  0.00  0.00    +0.163 C 
BRANCH  14  15
ATOM     15  OG  SER A   1       9.030  16.157  35.235  0.00  0.00    -0.380 OA
ATOM     16  H   SER A   1       9.390  17.041  34.973  0.00  0.00    +0.211 HD
ENDBRANCH  14  15
ENDBRANCH  11  14
ENDBRANCH   7  11
ENDBRANCH   6   9
ENDBRANCH   2   6
ENDBRANCH   1   3
BRANCH   1  17
ATOM     17  C   GLN A   3       4.792   9.968  36.454  0.00  0.00    +0.241 C 
ATOM     18  N   GLY A   4       4.979  11.101  37.132  0.00  0.00    -0.295 N 
ATOM     19  H   GLY A   4       5.761  11.727  36.853  0.00  0.00    +0.150 HD
ATOM     20  O   GLN A   3       3.924   9.139  36.746  0.00  0.00    -0.273 OA
BRANCH  18  21
ATOM     21  CA  GLY A   4       4.129  11.496  38.250  0.00  0.00    +0.176 C 
BRANCH  21  22
ATOM     22  C   GLY A   4       4.675  11.066  39.595  0.00  0.00    +0.243 C 
ATOM     23  N   TYR A   5       4.203  11.726  40.647  0.00  0.00    -0.298 N 
ATOM     24  H   TYR A   5       3.490  12.467  40.492  0.00  0.00    +0.150 HD
ATOM     25  O   GLY A   4       5.497  10.154  39.680  0.00  0.00    -0.273 OA
BRANCH  23  26
ATOM     26  CA  TYR A   5       4.644  11.453  42.008  0.00  0.00    +0.141 C 
BRANCH  26  27
ATOM     27  C   TYR A   5       3.616  10.619  42.749  0.00  0.00    +0.227 C 
ATOM     28  O   TYR A   5       2.414  10.865  42.644  0.00  0.00    -0.286 OA
ENDBRANCH  26  27
BRANCH  26  29
ATOM     29  CB  TYR A   5       4.924  12.761  42.749  0.00  0.00    +0.054 C 
BRANCH  29  30
ATOM     30  CG  TYR A   5       6.178  13.447  42.261  0.00  0.00    -0.020 A 
ATOM     31  CD2 TYR A   5       7.408  13.205  42.872  0.00  0.00    -0.001 A 
ATOM     32  CE2 TYR A   5       8.571  13.824  42.418  0.00  0.00    +0.036 A 
ATOM     33  CZ  TYR A   5       8.510  14.692  41.342  0.00  0.00    +0.134 A 
ATOM     34  CE1 TYR A   5       7.301  14.947  40.714  0.00  0.00    +0.036 A 
ATOM     35  CD1 TYR A   5       6.142  14.323  41.175  0.00  0.00    -0.001 A 
BRANCH  33  36
ATOM     36  OH  TYR A   5       9.657  15.303  40.896  0.00  0.00    -0.506 OA
ATOM     37  HH  TYR A   5       9.441  15.887  40.126  0.00  0.00    +0.292 HD
ENDBRANCH  33  36
ENDBRANCH  29  30
ENDBRANCH  26  29
ENDBRANCH  23  26
ENDBRANCH  21  22
ENDBRANCH  18  21
ENDBRANCH   1  17
BRANCH   1  38
ATOM     38  CB  GLN A   3       6.631   8.524  35.589  0.00  0.00    +0.039 C 
BRANCH  38  39
ATOM     39  CG  GLN A   3       7.952   8.482  34.841  0.00  0.00    +0.087 C 
BRANCH  39  40
ATOM     40  CD  GLN A   3       7.851   7.805  33.499  0.00  0.00    +0.219 C 
ATOM     41  OE1 GLN A   3       8.205   6.631  33.356  0.00  0.00    -0.275 OA
ATOM     42  NE2 GLN A   3       7.367   8.539  32.498  0.00  0.00    -0.329 N 
ATOM     43 HE21 GLN A   3       7.081   9.525  32.667  0.00  0.00    +0.145 HD
ATOM     44 HE22 GLN A   3       7.275   8.126  31.548  0.00  0.00    +0.145 HD
ENDBRANCH  39  40
ENDBRANCH  38  39
ENDBRANCH   1  38
TORSDOF 18
REMARK  Name = ../refined-set-2016/4fsl/4fsl_pocket.pdb
REMARK  230 active torsions:
REMARK  status: ('A' for Active; 'I' for Inactive)
REMARK    1  A    between atoms: _1  and  _3
REMARK    2  A    between atoms: _3  and  _4
REMARK    3  A    between atoms: _3  and  _6
REMARK    4  A    between atoms: _6  and  _7
REMARK    5  A    between atoms: _9  and  _11
REMARK    6  A    between atoms: _11  and  _12
REMARK    7  A    between atoms: _14  and  _16
REMARK    8  A    between atoms: _16  and  _17
REMARK    9  A    between atoms: _16  and  _19
REMARK   10  A    between atoms: _19  and  _20
REMARK   11  A    between atoms: _20  and  _21
REMARK   12  A    between atoms: _26  and  _28
REMARK   13  A    between atoms: _28  and  _29
REMARK   14  A    between atoms: _31  and  _33
REMARK   15  A    between atoms: _33  and  _34
REMARK   16  A    between atoms: _33  and  _36
REMARK   17  A    between atoms: _36  and  _37
REMARK   18  A    between atoms: _42  and  _43
REMARK   19  A    between atoms: _45  and  _47
REMARK   20  A    between atoms: _47  and  _48
REMARK   21  A    between atoms: _47  and  _50
REMARK   22  A    between atoms: _50  and  _51
REMARK   23  A    between atoms: _54  and  _56
REMARK   24  A    between atoms: _56  and  _57
REMARK   25  A    between atoms: _56  and  _59
REMARK   26  A    between atoms: _62  and  _64
REMARK   27  A    between atoms: _64  and  _65
REMARK   28  A    between atoms: _64  and  _67
REMARK   29  A    between atoms: _67  and  _68
REMARK   30  A    between atoms: _71  and  _73
REMARK   31  A    between atoms: _73  and  _74
REMARK   32  A    between atoms: _73  and  _76
REMARK   33  A    between atoms: _76  and  _77
REMARK   34  A    between atoms: _80  and  _82
REMARK   35  A    between atoms: _82  and  _83
REMARK   36  A    between atoms: _85  and  _87
REMARK   37  A    between atoms: _87  and  _88
REMARK   38  A    between atoms: _87  and  _90
REMARK   39  A    between atoms: _90  and  _91
REMARK   40  A    between atoms: _93  and  _95
REMARK   41  A    between atoms: _95  and  _96
REMARK   42  A    between atoms: _95  and  _98
REMARK   43  A    between atoms: _98  and  _99
REMARK   44  A    between atoms: _101  and  _103
REMARK   45  A    between atoms: _103  and  _104
REMARK   46  A    between atoms: _103  and  _106
REMARK   47  A    between atoms: _106  and  _107
REMARK   48  A    between atoms: _112  and  _114
REMARK   49  A    between atoms: _114  and  _115
REMARK   50  A    between atoms: _114  and  _117
REMARK   51  A    between atoms: _117  and  _118
REMARK   52  A    between atoms: _124  and  _126
REMARK   53  A    between atoms: _126  and  _127
REMARK   54  A    between atoms: _126  and  _129
REMARK   55  A    between atoms: _133  and  _134
REMARK   56  A    between atoms: _139  and  _141
REMARK   57  A    between atoms: _141  and  _142
REMARK   58  A    between atoms: _141  and  _144
REMARK   59  A    between atoms: _144  and  _145
REMARK   60  A    between atoms: _150  and  _151
REMARK   61  A    between atoms: _153  and  _155
REMARK   62  A    between atoms: _155  and  _156
REMARK   63  A    between atoms: _155  and  _158
REMARK   64  A    between atoms: _158  and  _159
REMARK   65  A    between atoms: _162  and  _164
REMARK   66  A    between atoms: _164  and  _165
REMARK   67  A    between atoms: _164  and  _167
REMARK   68  A    between atoms: _167  and  _168
REMARK   69  A    between atoms: _168  and  _169
REMARK   70  A    between atoms: _174  and  _176
REMARK   71  A    between atoms: _176  and  _177
REMARK   72  A    between atoms: _179  and  _181
REMARK   73  A    between atoms: _181  and  _182
REMARK   74  A    between atoms: _181  and  _184
REMARK   75  A    between atoms: _184  and  _185
REMARK   76  A    between atoms: _185  and  _186
REMARK   77  A    between atoms: _186  and  _187
REMARK   78  A    between atoms: _187  and  _188
REMARK   79  A    between atoms: _192  and  _194
REMARK   80  A    between atoms: _194  and  _195
REMARK   81  A    between atoms: _194  and  _197
REMARK   82  A    between atoms: _197  and  _198
REMARK   83  A    between atoms: _208  and  _210
REMARK   84  A    between atoms: _210  and  _211
REMARK   85  A    between atoms: _210  and  _213
REMARK   86  A    between atoms: _213  and  _214
REMARK   87  A    between atoms: _217  and  _219
REMARK   88  A    between atoms: _219  and  _220
REMARK   89  A    between atoms: _219  and  _222
REMARK   90  A    between atoms: _222  and  _223
REMARK   91  A    between atoms: _223  and  _224
REMARK   92  A    between atoms: _224  and  _225
REMARK   93  A    between atoms: _225  and  _226
REMARK   94  A    between atoms: _230  and  _232
REMARK   95  A    between atoms: _232  and  _233
REMARK   96  A    between atoms: _232  and  _235
REMARK   97  A    between atoms: _235  and  _236
REMARK   98  A    between atoms: _242  and  _244
REMARK   99  A    between atoms: _244  and  _245
REMARK  100  A    between atoms: _244  and  _247
REMARK  101  A    between atoms: _247  and  _248
REMARK  102  A    between atoms: _254  and  _256
REMARK  103  A    between atoms: _256  and  _257
REMARK  104  A    between atoms: _256  and  _259
REMARK  105  A    between atoms: _259  and  _260
REMARK  106  A    between atoms: _263  and  _265
REMARK  107  A    between atoms: _265  and  _266
REMARK  108  A    between atoms: _265  and  _268
REMARK  109  A    between atoms: _268  and  _269
REMARK  110  A    between atoms: _274  and  _276
REMARK  111  A    between atoms: _276  and  _277
REMARK  112  A    between atoms: _276  and  _279
REMARK  113  A    between atoms: _279  and  _280
REMARK  114  A    between atoms: _282  and  _284
REMARK  115  A    between atoms: _284  and  _285
REMARK  116  A    between atoms: _284  and  _287
REMARK  117  A    between atoms: _287  and  _288
REMARK  118  A    between atoms: _298  and  _300
REMARK  119  A    between atoms: _300  and  _301
REMARK  120  A    between atoms: _303  and  _305
REMARK  121  A    between atoms: _305  and  _306
REMARK  122  A    between atoms: _305  and  _308
REMARK  123  A    between atoms: _308  and  _309
REMARK  124  A    between atoms: _312  and  _314
REMARK  125  A    between atoms: _314  and  _315
REMARK  126  A    between atoms: _314  and  _317
REMARK  127  A    between atoms: _317  and  _318
REMARK  128  A    between atoms: _321  and  _323
REMARK  129  A    between atoms: _323  and  _324
REMARK  130  A    between atoms: _326  and  _328
REMARK  131  A    between atoms: _328  and  _329
REMARK  132  A    between atoms: _328  and  _331
REMARK  133  A    between atoms: _331  and  _332
REMARK  134  A    between atoms: _335  and  _337
REMARK  135  A    between atoms: _337  and  _338
REMARK  136  A    between atoms: _341  and  _343
REMARK  137  A    between atoms: _343  and  _344
REMARK  138  A    between atoms: _343  and  _346
REMARK  139  A    between atoms: _346  and  _347
REMARK  140  A    between atoms: _350  and  _352
REMARK  141  A    between atoms: _352  and  _353
REMARK  142  A    between atoms: _352  and  _355
REMARK  143  A    between atoms: _355  and  _356
REMARK  144  A    between atoms: _361  and  _362
REMARK  145  A    between atoms: _364  and  _366
REMARK  146  A    between atoms: _366  and  _367
REMARK  147  A    between atoms: _366  and  _369
REMARK  148  A    between atoms: _369  and  _370
REMARK  149  A    between atoms: _375  and  _376
REMARK  150  A    between atoms: _378  and  _380
REMARK  151  A    between atoms: _380  and  _381
REMARK  152  A    between atoms: _380  and  _383
REMARK  153  A    between atoms: _383  and  _384
REMARK  154  A    between atoms: _387  and  _389
REMARK  155  A    between atoms: _389  and  _390
REMARK  156  A    between atoms: _389  and  _392
REMARK  157  A    between atoms: _392  and  _393
REMARK  158  A    between atoms: _393  and  _394
REMARK  159  A    between atoms: _394  and  _395
REMARK  160  A    between atoms: _395  and  _396
REMARK  161  A    between atoms: _400  and  _402
REMARK  162  A    between atoms: _402  and  _403
REMARK  163  A    between atoms: _402  and  _405
REMARK  164  A    between atoms: _405  and  _406
REMARK  165  A    between atoms: _409  and  _411
REMARK  166  A    between atoms: _411  and  _412
REMARK  167  A    between atoms: _411  and  _414
REMARK  168  A    between atoms: _417  and  _419
REMARK  169  A    between atoms: _419  and  _420
REMARK  170  A    between atoms: _419  and  _422
REMARK  171  A    between atoms: _422  and  _423
REMARK  172  A    between atoms: _426  and  _428
REMARK  173  A    between atoms: _428  and  _429
REMARK  174  A    between atoms: _428  and  _431
REMARK  175  A    between atoms: _431  and  _432
REMARK  176  A    between atoms: _434  and  _436
REMARK  177  A    between atoms: _436  and  _437
REMARK  178  A    between atoms: _439  and  _441
REMARK  179  A    between atoms: _441  and  _442
REMARK  180  A    between atoms: _441  and  _444
REMARK  181  A    between atoms: _444  and  _445
REMARK  182  A    between atoms: _448  and  _450
REMARK  183  A    between atoms: _450  and  _451
REMARK  184  A    between atoms: _450  and  _453
REMARK  185  A    between atoms: _453  and  _454
REMARK  186  A    between atoms: _457  and  _459
REMARK  187  A    between atoms: _459  and  _460
REMARK  188  A    between atoms: _459  and  _462
REMARK  189  A    between atoms: _462  and  _463
REMARK  190  A    between atoms: _468  and  _470
REMARK  191  A    between atoms: _470  and  _471
REMARK  192  A    between atoms: _470  and  _473
REMARK  193  A    between atoms: _473  and  _474
REMARK  194  A    between atoms: _474  and  _475
REMARK  195  A    between atoms: _475  and  _476
REMARK  196  A    between atoms: _485  and  _487
REMARK  197  A    between atoms: _487  and  _488
REMARK  198  A    between atoms: _487  and  _490
REMARK  199  A    between atoms: _490  and  _491
REMARK  200  A    between atoms: _493  and  _495
REMARK  201  A    between atoms: _495  and  _496
REMARK  202  A    between atoms: _495  and  _498
REMARK  203  A    between atoms: _498  and  _499
REMARK  204  A    between atoms: _499  and  _500
REMARK  205  A    between atoms: _505  and  _507
REMARK  206  A    between atoms: _507  and  _508
REMARK  207  A    between atoms: _507  and  _510
REMARK  208  A    between atoms: _510  and  _511
REMARK  209  A    between atoms: _513  and  _515
REMARK  210  A    between atoms: _515  and  _516
REMARK  211  A    between atoms: _515  and  _518
REMARK  212  A    between atoms: _518  and  _519
REMARK  213  A    between atoms: _521  and  _523
REMARK  214  A    between atoms: _523  and  _524
REMARK  215  A    between atoms: _523  and  _526
REMARK  216  A    between atoms: _526  and  _527
REMARK  217  A    between atoms: _530  and  _532
REMARK  218  A    between atoms: _532  and  _533
REMARK  219  A    between atoms: _535  and  _537
REMARK  220  A    between atoms: _537  and  _538
REMARK  221  A    between atoms: _537  and  _540
REMARK  222  A    between atoms: _540  and  _541
REMARK  223  A    between atoms: _544  and  _546
REMARK  224  A    between atoms: _546  and  _547
REMARK  225  A    between atoms: _546  and  _549
REMARK  226  A    between atoms: _552  and  _554
REMARK  227  A    between atoms: _554  and  _555
REMARK  228  A    between atoms: _554  and  _557
REMARK  229  A    between atoms: _557  and  _558
REMARK  230  A    between atoms: _558  and  _559
REMARK                            x       y       z     vdW  Elec       q    Type
REMARK                         _______ _______ _______ _____ _____    ______ ____
ROOT
ATOM      1  C   THR A   4      -5.581  18.026  41.267  0.00  0.00    +0.243 C 
ATOM      2  O   THR A   4      -6.419  18.913  41.432  0.00  0.00    -0.273 OA
ATOM      3  N   GLY A   5      -5.447  17.365  40.118  0.00  0.00    -0.295 N 
ATOM      4  H   GLY A   5      -4.747  16.598  40.061  0.00  0.00    +0.150 HD
ENDROOT
BRANCH   1   5
ATOM      5  CA  THR A   4      -4.645  17.606  42.415  0.00  0.00    +0.176 C 
BRANCH   5   8
ATOM      6  C   ASP A   3      -4.171  15.223  42.111  0.00  0.00    +0.241 C 
ATOM      7  O   ASP A   3      -5.299  14.902  42.486  0.00  0.00    -0.273 OA
ATOM      8  N   THR A   4      -3.764  16.489  42.049  0.00  0.00    -0.295 N 
ATOM      9  H   THR A   4      -2.795  16.693  41.732  0.00  0.00    +0.150 HD
BRANCH   6  10
ATOM     10  CA  ASP A   3      -3.170  14.161  41.647  0.00  0.00    +0.160 C 
BRANCH  10  12
ATOM     11  C   VAL A   2      -1.300  13.069  42.782  0.00  0.00    +0.241 C 
ATOM     12  N   ASP A   3      -2.604  13.335  42.717  0.00  0.00    -0.297 N 
ATOM     13  H   ASP A   3      -3.237  12.946  43.445  0.00  0.00    +0.150 HD
ATOM     14  O   VAL A   2      -0.469  13.584  42.028  0.00  0.00    -0.273 OA
BRANCH  11  15
ATOM     15  CA  VAL A   2      -0.864  12.061  43.844  0.00  0.00    +0.148 C 
BRANCH  15  17
ATOM     16  C   LEU A   1      -1.069   9.860  42.786  0.00  0.00    +0.238 C 
ATOM     17  N   VAL A   2      -0.313  10.886  43.166  0.00  0.00    -0.297 N 
ATOM     18  H   VAL A   2       0.709  10.852  42.974  0.00  0.00    +0.150 HD
ATOM     19  O   LEU A   1      -2.275   9.779  43.029  0.00  0.00    -0.274 OA
BRANCH  16  20
ATOM     20  CA  LEU A   1      -0.349   8.752  42.019  0.00  0.00    +0.145 C 
BRANCH  20  21
ATOM     21  N   LEU A   1      -0.627   7.434  42.577  0.00  0.00    -0.238 NA
ATOM     22  H   LEU A   1      -0.996   6.695  41.945  0.00  0.00    +0.142 HD
ENDBRANCH  20  21
BRANCH  20  23
ATOM     23  CB  LEU A   1      -0.745   8.796  40.536  0.00  0.00    +0.026 C 
BRANCH  23  24
ATOM     24  CG  LEU A   1      -0.622  10.143  39.814  0.00  0.00    +0.002 C 
ATOM     25  CD2 LEU A   1       0.834  10.538  39.621  0.00  0.00    +0.000 C 
ATOM     26  CD1 LEU A   1      -1.335  10.085  38.484  0.00  0.00    +0.000 C 
ENDBRANCH  23  24
ENDBRANCH  20  23
ENDBRANCH  16  20
ENDBRANCH  15  17
BRANCH  15  27
ATOM     27  CB  VAL A   2       0.168  12.685  44.821  0.00  0.00    +0.027 C 
ATOM     28  CG2 VAL A   2       0.489  11.708  45.954  0.00  0.00    +0.002 C 
ATOM     29  CG1 VAL A   2      -0.340  14.007  45.380  0.00  0.00    +0.002 C 
ENDBRANCH  15  27
ENDBRANCH  11  15
ENDBRANCH  10  12
BRANCH  10  30
ATOM     30  CB  ASP A   3      -3.824  13.269  40.589  0.00  0.00    +0.143 C 
BRANCH  30  31
ATOM     31  CG  ASP A   3      -4.353  14.059  39.401  0.00  0.00    +0.367 C 
ATOM     32  OD2 ASP A   3      -3.929  15.220  39.213  0.00  0.00    -0.246 OA
ATOM     33  OD1 ASP A   3      -5.156  13.508  38.623  0.00  0.00    -0.246 OA
ENDBRANCH  30  31
ENDBRANCH  10  30
ENDBRANCH   6  10
ENDBRANCH   5   8
BRANCH   5  34
ATOM     34  CB  THR A   4      -3.846  18.833  42.945  0.00  0.00    +0.137 C 
ATOM     35  CG2 THR A   4      -3.044  18.467  44.187  0.00  0.00    +0.034 C 
BRANCH  34  36
ATOM     36  OG1 THR A   4      -2.953  19.312  41.933  0.00  0.00    -0.382 OA
ATOM     37  HG1 THR A   4      -3.474  19.582  41.136  0.00  0.00    +0.210 HD
ENDBRANCH  34  36
ENDBRANCH   5  34
ENDBRANCH   1   5
BRANCH   3  38
ATOM     38  CA  GLY A   5      -6.247  17.676  38.934  0.00  0.00    +0.176 C 
BRANCH  38  39
ATOM     39  C   GLY A   5      -7.462  16.795  38.692  0.00  0.00    +0.243 C 
ATOM     40  N   SER A   6      -7.691  15.831  39.582  0.00  0.00    -0.295 N 
ATOM     41  H   SER A   6      -7.018  15.700  40.364  0.00  0.00    +0.150 HD
ATOM     42  O   GLY A   5      -8.182  16.985  37.708  0.00  0.00    -0.273 OA
BRANCH  40  43
ATOM     43  CA  SER A   6      -8.858  14.949  39.499  0.00  0.00    +0.178 C 
BRANCH  43  44
ATOM     44  C   SER A   6      -9.438  14.686  40.892  0.00  0.00    +0.243 C 
ATOM     45  O   SER A   6      -8.896  15.172  41.887  0.00  0.00    -0.273 OA
ATOM     46  N   SER A   7     -10.533  13.929  40.965  0.00  0.00    -0.295 N 
ATOM     47  H   SER A   7     -10.877  13.445  40.111  0.00  0.00    +0.150 HD
BRANCH  46  48
ATOM     48  CA  SER A   7     -11.262  13.767  42.230  0.00  0.00    +0.178 C 
BRANCH  48  49
ATOM     49  C   SER A   7     -11.646  12.333  42.582  0.00  0.00    +0.243 C 
ATOM     50  O   SER A   7     -12.314  12.094  43.595  0.00  0.00    -0.273 OA
ATOM     51  N   ASN A   8     -11.222  11.383  41.756  0.00  0.00    -0.298 N 
ATOM     52  H   ASN A   8     -10.674  11.648  40.913  0.00  0.00    +0.150 HD
BRANCH  51  53
ATOM     53  CA  ASN A   8     -11.510   9.974  42.008  0.00  0.00    +0.146 C 
BRANCH  53  54
ATOM     54  C   ASN A   8     -10.335   9.216  42.602  0.00  0.00    +0.227 C 
ATOM     55  O   ASN A   8      -9.188   9.392  42.173  0.00  0.00    -0.286 OA
ENDBRANCH  53  54
BRANCH  53  56
ATOM     56  CB  ASN A   8     -11.968   9.280  40.727  0.00  0.00    +0.112 C 
BRANCH  56  57
ATOM     57  CG  ASN A   8     -13.419   9.544  40.415  0.00  0.00    +0.222 C 
ATOM     58  ND2 ASN A   8     -14.263   8.551  40.666  0.00  0.00    -0.329 N 
ATOM     59 HD21 ASN A   8     -13.910   7.656  41.062  0.00  0.00    +0.145 HD
ATOM     60 HD22 ASN A   8     -15.277   8.667  40.467  0.00  0.00    +0.145 HD
ATOM     61  OD1 ASN A   8     -13.783  10.622  39.947  0.00  0.00    -0.275 OA
ENDBRANCH  56  57
ENDBRANCH  53  56
ENDBRANCH  51  53
ENDBRANCH  48  49
BRANCH  48  62
ATOM     62  CB  SER A   7     -12.509  14.660  42.245  0.00  0.00    +0.166 C 
BRANCH  62  63
ATOM     63  OG  SER A   7     -12.157  16.016  42.056  0.00  0.00    -0.380 OA
ATOM     64  H   SER A   7     -12.975  16.573  42.069  0.00  0.00    +0.211 HD
ENDBRANCH  62  63
ENDBRANCH  48  62
ENDBRANCH  46  48
ENDBRANCH  43  44
BRANCH  43  65
ATOM     65  CB  SER A   6      -8.504  13.648  38.781  0.00  0.00    +0.166 C 
BRANCH  65  66
ATOM     66  OG  SER A   6      -7.437  12.976  39.424  0.00  0.00    -0.380 OA
ATOM     67  H   SER A   6      -6.637  13.559  39.430  0.00  0.00    +0.211 HD
ENDBRANCH  65  66
ENDBRANCH  43  65
ENDBRANCH  40  43
ENDBRANCH  38  39
ENDBRANCH   3  38
TORSDOF 29
REMARK  Name = ../refined-set-2016/4fsl/4fsl_pocket.pdb
REMARK  230 active torsions:
REMARK  status: ('A' for Active; 'I' for Inactive)
REMARK    1  A    between atoms: _1  and  _3
REMARK    2  A    between atoms: _3  and  _4
REMARK    3  A    between atoms: _3  and  _6
REMARK    4  A    between atoms: _6  and  _7
REMARK    5  A    between atoms: _9  and  _11
REMARK    6  A    between atoms: _11  and  _12
REMARK    7  A    between atoms: _14  and  _16
REMARK    8  A    between atoms: _16  and  _17
REMARK    9  A    between atoms: _16  and  _19
REMARK   10  A    between atoms: _19  and  _20
REMARK   11  A    between atoms: _20  and  _21
REMARK   12  A    between atoms: _26  and  _28
REMARK   13  A    between atoms: _28  and  _29
REMARK   14  A    between atoms: _31  and  _33
REMARK   15  A    between atoms: _33  and  _34
REMARK   16  A    between atoms: _33  and  _36
REMARK   17  A    between atoms: _36  and  _37
REMARK   18  A    between atoms: _42  and  _43
REMARK   19  A    between atoms: _45  and  _47
REMARK   20  A    between atoms: _47  and  _48
REMARK   21  A    between atoms: _47  and  _50
REMARK   22  A    between atoms: _50  and  _51
REMARK   23  A    between atoms: _54  and  _56
REMARK   24  A    between atoms: _56  and  _57
REMARK   25  A    between atoms: _56  and  _59
REMARK   26  A    between atoms: _62  and  _64
REMARK   27  A    between atoms: _64  and  _65
REMARK   28  A    between atoms: _64  and  _67
REMARK   29  A    between atoms: _67  and  _68
REMARK   30  A    between atoms: _71  and  _73
REMARK   31  A    between atoms: _73  and  _74
REMARK   32  A    between atoms: _73  and  _76
REMARK   33  A    between atoms: _76  and  _77
REMARK   34  A    between atoms: _80  and  _82
REMARK   35  A    between atoms: _82  and  _83
REMARK   36  A    between atoms: _85  and  _87
REMARK   37  A    between atoms: _87  and  _88
REMARK   38  A    between atoms: _87  and  _90
REMARK   39  A    between atoms: _90  and  _91
REMARK   40  A    between atoms: _93  and  _95
REMARK   41  A    between atoms: _95  and  _96
REMARK   42  A    between atoms: _95  and  _98
REMARK   43  A    between atoms: _98  and  _99
REMARK   44  A    between atoms: _101  and  _103
REMARK   45  A    between atoms: _103  and  _104
REMARK   46  A    between atoms: _103  and  _106
REMARK   47  A    between atoms: _106  and  _107
REMARK   48  A    between atoms: _112  and  _114
REMARK   49  A    between atoms: _114  and  _115
REMARK   50  A    between atoms: _114  and  _117
REMARK   51  A    between atoms: _117  and  _118
REMARK   52  A    between atoms: _124  and  _126
REMARK   53  A    between atoms: _126  and  _127
REMARK   54  A    between atoms: _126  and  _129
REMARK   55  A    between atoms: _133  and  _134
REMARK   56  A    between atoms: _139  and  _141
REMARK   57  A    between atoms: _141  and  _142
REMARK   58  A    between atoms: _141  and  _144
REMARK   59  A    between atoms: _144  and  _145
REMARK   60  A    between atoms: _150  and  _151
REMARK   61  A    between atoms: _153  and  _155
REMARK   62  A    between atoms: _155  and  _156
REMARK   63  A    between atoms: _155  and  _158
REMARK   64  A    between atoms: _158  and  _159
REMARK   65  A    between atoms: _162  and  _164
REMARK   66  A    between atoms: _164  and  _165
REMARK   67  A    between atoms: _164  and  _167
REMARK   68  A    between atoms: _167  and  _168
REMARK   69  A    between atoms: _168  and  _169
REMARK   70  A    between atoms: _174  and  _176
REMARK   71  A    between atoms: _176  and  _177
REMARK   72  A    between atoms: _179  and  _181
REMARK   73  A    between atoms: _181  and  _182
REMARK   74  A    between atoms: _181  and  _184
REMARK   75  A    between atoms: _184  and  _185
REMARK   76  A    between atoms: _185  and  _186
REMARK   77  A    between atoms: _186  and  _187
REMARK   78  A    between atoms: _187  and  _188
REMARK   79  A    between atoms: _192  and  _194
REMARK   80  A    between atoms: _194  and  _195
REMARK   81  A    between atoms: _194  and  _197
REMARK   82  A    between atoms: _197  and  _198
REMARK   83  A    between atoms: _208  and  _210
REMARK   84  A    between atoms: _210  and  _211
REMARK   85  A    between atoms: _210  and  _213
REMARK   86  A    between atoms: _213  and  _214
REMARK   87  A    between atoms: _217  and  _219
REMARK   88  A    between atoms: _219  and  _220
REMARK   89  A    between atoms: _219  and  _222
REMARK   90  A    between atoms: _222  and  _223
REMARK   91  A    between atoms: _223  and  _224
REMARK   92  A    between atoms: _224  and  _225
REMARK   93  A    between atoms: _225  and  _226
REMARK   94  A    between atoms: _230  and  _232
REMARK   95  A    between atoms: _232  and  _233
REMARK   96  A    between atoms: _232  and  _235
REMARK   97  A    between atoms: _235  and  _236
REMARK   98  A    between atoms: _242  and  _244
REMARK   99  A    between atoms: _244  and  _245
REMARK  100  A    between atoms: _244  and  _247
REMARK  101  A    between atoms: _247  and  _248
REMARK  102  A    between atoms: _254  and  _256
REMARK  103  A    between atoms: _256  and  _257
REMARK  104  A    between atoms: _256  and  _259
REMARK  105  A    between atoms: _259  and  _260
REMARK  106  A    between atoms: _263  and  _265
REMARK  107  A    between atoms: _265  and  _266
REMARK  108  A    between atoms: _265  and  _268
REMARK  109  A    between atoms: _268  and  _269
REMARK  110  A    between atoms: _274  and  _276
REMARK  111  A    between atoms: _276  and  _277
REMARK  112  A    between atoms: _276  and  _279
REMARK  113  A    between atoms: _279  and  _280
REMARK  114  A    between atoms: _282  and  _284
REMARK  115  A    between atoms: _284  and  _285
REMARK  116  A    between atoms: _284  and  _287
REMARK  117  A    between atoms: _287  and  _288
REMARK  118  A    between atoms: _298  and  _300
REMARK  119  A    between atoms: _300  and  _301
REMARK  120  A    between atoms: _303  and  _305
REMARK  121  A    between atoms: _305  and  _306
REMARK  122  A    between atoms: _305  and  _308
REMARK  123  A    between atoms: _308  and  _309
REMARK  124  A    between atoms: _312  and  _314
REMARK  125  A    between atoms: _314  and  _315
REMARK  126  A    between atoms: _314  and  _317
REMARK  127  A    between atoms: _317  and  _318
REMARK  128  A    between atoms: _321  and  _323
REMARK  129  A    between atoms: _323  and  _324
REMARK  130  A    between atoms: _326  and  _328
REMARK  131  A    between atoms: _328  and  _329
REMARK  132  A    between atoms: _328  and  _331
REMARK  133  A    between atoms: _331  and  _332
REMARK  134  A    between atoms: _335  and  _337
REMARK  135  A    between atoms: _337  and  _338
REMARK  136  A    between atoms: _341  and  _343
REMARK  137  A    between atoms: _343  and  _344
REMARK  138  A    between atoms: _343  and  _346
REMARK  139  A    between atoms: _346  and  _347
REMARK  140  A    between atoms: _350  and  _352
REMARK  141  A    between atoms: _352  and  _353
REMARK  142  A    between atoms: _352  and  _355
REMARK  143  A    between atoms: _355  and  _356
REMARK  144  A    between atoms: _361  and  _362
REMARK  145  A    between atoms: _364  and  _366
REMARK  146  A    between atoms: _366  and  _367
REMARK  147  A    between atoms: _366  and  _369
REMARK  148  A    between atoms: _369  and  _370
REMARK  149  A    between atoms: _375  and  _376
REMARK  150  A    between atoms: _378  and  _380
REMARK  151  A    between atoms: _380  and  _381
REMARK  152  A    between atoms: _380  and  _383
REMARK  153  A    between atoms: _383  and  _384
REMARK  154  A    between atoms: _387  and  _389
REMARK  155  A    between atoms: _389  and  _390
REMARK  156  A    between atoms: _389  and  _392
REMARK  157  A    between atoms: _392  and  _393
REMARK  158  A    between atoms: _393  and  _394
REMARK  159  A    between atoms: _394  and  _395
REMARK  160  A    between atoms: _395  and  _396
REMARK  161  A    between atoms: _400  and  _402
REMARK  162  A    between atoms: _402  and  _403
REMARK  163  A    between atoms: _402  and  _405
REMARK  164  A    between atoms: _405  and  _406
REMARK  165  A    between atoms: _409  and  _411
REMARK  166  A    between atoms: _411  and  _412
REMARK  167  A    between atoms: _411  and  _414
REMARK  168  A    between atoms: _417  and  _419
REMARK  169  A    between atoms: _419  and  _420
REMARK  170  A    between atoms: _419  and  _422
REMARK  171  A    between atoms: _422  and  _423
REMARK  172  A    between atoms: _426  and  _428
REMARK  173  A    between atoms: _428  and  _429
REMARK  174  A    between atoms: _428  and  _431
REMARK  175  A    between atoms: _431  and  _432
REMARK  176  A    between atoms: _434  and  _436
REMARK  177  A    between atoms: _436  and  _437
REMARK  178  A    between atoms: _439  and  _441
REMARK  179  A    between atoms: _441  and  _442
REMARK  180  A    between atoms: _441  and  _444
REMARK  181  A    between atoms: _444  and  _445
REMARK  182  A    between atoms: _448  and  _450
REMARK  183  A    between atoms: _450  and  _451
REMARK  184  A    between atoms: _450  and  _453
REMARK  185  A    between atoms: _453  and  _454
REMARK  186  A    between atoms: _457  and  _459
REMARK  187  A    between atoms: _459  and  _460
REMARK  188  A    between atoms: _459  and  _462
REMARK  189  A    between atoms: _462  and  _463
REMARK  190  A    between atoms: _468  and  _470
REMARK  191  A    between atoms: _470  and  _471
REMARK  192  A    between atoms: _470  and  _473
REMARK  193  A    between atoms: _473  and  _474
REMARK  194  A    between atoms: _474  and  _475
REMARK  195  A    between atoms: _475  and  _476
REMARK  196  A    between atoms: _485  and  _487
REMARK  197  A    between atoms: _487  and  _488
REMARK  198  A    between atoms: _487  and  _490
REMARK  199  A    between atoms: _490  and  _491
REMARK  200  A    between atoms: _493  and  _495
REMARK  201  A    between atoms: _495  and  _496
REMARK  202  A    between atoms: _495  and  _498
REMARK  203  A    between atoms: _498  and  _499
REMARK  204  A    between atoms: _499  and  _500
REMARK  205  A    between atoms: _505  and  _507
REMARK  206  A    between atoms: _507  and  _508
REMARK  207  A    between atoms: _507  and  _510
REMARK  208  A    between atoms: _510  and  _511
REMARK  209  A    between atoms: _513  and  _515
REMARK  210  A    between atoms: _515  and  _516
REMARK  211  A    between atoms: _515  and  _518
REMARK  212  A    between atoms: _518  and  _519
REMARK  213  A    between atoms: _521  and  _523
REMARK  214  A    between atoms: _523  and  _524
REMARK  215  A    between atoms: _523  and  _526
REMARK  216  A    between atoms: _526  and  _527
REMARK  217  A    between atoms: _530  and  _532
REMARK  218  A    between atoms: _532  and  _533
REMARK  219  A    between atoms: _535  and  _537
REMARK  220  A    between atoms: _537  and  _538
REMARK  221  A    between atoms: _537  and  _540
REMARK  222  A    between atoms: _540  and  _541
REMARK  223  A    between atoms: _544  and  _546
REMARK  224  A    between atoms: _546  and  _547
REMARK  225  A    between atoms: _546  and  _549
REMARK  226  A    between atoms: _552  and  _554
REMARK  227  A    between atoms: _554  and  _555
REMARK  228  A    between atoms: _554  and  _557
REMARK  229  A    between atoms: _557  and  _558
REMARK  230  A    between atoms: _558  and  _559
REMARK                            x       y       z     vdW  Elec       q    Type
REMARK                         _______ _______ _______ _____ _____    ______ ____
ROOT
ATOM      1  CB  PHE A   1       1.934  -0.410  32.671  0.00  0.00    +0.051 C 
ENDROOT
BRANCH   1   2
ATOM      2  CG  PHE A   1       2.078  -0.139  31.187  0.00  0.00    -0.020 A 
ATOM      3  CD2 PHE A   1       1.280   0.822  30.573  0.00  0.00    -0.004 A 
ATOM      4  CE2 PHE A   1       1.400   1.094  29.205  0.00  0.00    -0.000 A 
ATOM      5  CZ  PHE A   1       2.325   0.399  28.440  0.00  0.00    -0.000 A 
ATOM      6  CE1 PHE A   1       3.129  -0.564  29.038  0.00  0.00    -0.000 A 
ATOM      7  CD1 PHE A   1       3.007  -0.827  30.406  0.00  0.00    -0.004 A 
ENDBRANCH   1   2
BRANCH   1   8
ATOM      8  CA  PHE A   1       2.308  -1.841  33.106  0.00  0.00    +0.137 C 
BRANCH   8   9
ATOM      9  N   PHE A   1       1.524  -2.843  32.373  0.00  0.00    -0.239 NA
ATOM     10  H   PHE A   1       0.522  -2.649  32.171  0.00  0.00    +0.142 HD
ENDBRANCH   8   9
BRANCH   8  11
ATOM     11  C   PHE A   1       2.194  -1.949  34.634  0.00  0.00    +0.224 C 
ATOM     12  O   PHE A   1       2.863  -1.208  35.356  0.00  0.00    -0.287 OA
ENDBRANCH   8  11
ENDBRANCH   1   8
TORSDOF 4
REMARK  Name = ../refined-set-2016/4fsl/4fsl_pocket.pdb
REMARK  230 active torsions:
REMARK  status: ('A' for Active; 'I' for Inactive)
REMARK    1  A    between atoms: _1  and  _3
REMARK    2  A    between atoms: _3  and  _4
REMARK    3  A    between atoms: _3  and  _6
REMARK    4  A    between atoms: _6  and  _7
REMARK    5  A    between atoms: _9  and  _11
REMARK    6  A    between atoms: _11  and  _12
REMARK    7  A    between atoms: _14  and  _16
REMARK    8  A    between atoms: _16  and  _17
REMARK    9  A    between atoms: _16  and  _19
REMARK   10  A    between atoms: _19  and  _20
REMARK   11  A    between atoms: _20  and  _21
REMARK   12  A    between atoms: _26  and  _28
REMARK   13  A    between atoms: _28  and  _29
REMARK   14  A    between atoms: _31  and  _33
REMARK   15  A    between atoms: _33  and  _34
REMARK   16  A    between atoms: _33  and  _36
REMARK   17  A    between atoms: _36  and  _37
REMARK   18  A    between atoms: _42  and  _43
REMARK   19  A    between atoms: _45  and  _47
REMARK   20  A    between atoms: _47  and  _48
REMARK   21  A    between atoms: _47  and  _50
REMARK   22  A    between atoms: _50  and  _51
REMARK   23  A    between atoms: _54  and  _56
REMARK   24  A    between atoms: _56  and  _57
REMARK   25  A    between atoms: _56  and  _59
REMARK   26  A    between atoms: _62  and  _64
REMARK   27  A    between atoms: _64  and  _65
REMARK   28  A    between atoms: _64  and  _67
REMARK   29  A    between atoms: _67  and  _68
REMARK   30  A    between atoms: _71  and  _73
REMARK   31  A    between atoms: _73  and  _74
REMARK   32  A    between atoms: _73  and  _76
REMARK   33  A    between atoms: _76  and  _77
REMARK   34  A    between atoms: _80  and  _82
REMARK   35  A    between atoms: _82  and  _83
REMARK   36  A    between atoms: _85  and  _87
REMARK   37  A    between atoms: _87  and  _88
REMARK   38  A    between atoms: _87  and  _90
REMARK   39  A    between atoms: _90  and  _91
REMARK   40  A    between atoms: _93  and  _95
REMARK   41  A    between atoms: _95  and  _96
REMARK   42  A    between atoms: _95  and  _98
REMARK   43  A    between atoms: _98  and  _99
REMARK   44  A    between atoms: _101  and  _103
REMARK   45  A    between atoms: _103  and  _104
REMARK   46  A    between atoms: _103  and  _106
REMARK   47  A    between atoms: _106  and  _107
REMARK   48  A    between atoms: _112  and  _114
REMARK   49  A    between atoms: _114  and  _115
REMARK   50  A    between atoms: _114  and  _117
REMARK   51  A    between atoms: _117  and  _118
REMARK   52  A    between atoms: _124  and  _126
REMARK   53  A    between atoms: _126  and  _127
REMARK   54  A    between atoms: _126  and  _129
REMARK   55  A    between atoms: _133  and  _134
REMARK   56  A    between atoms: _139  and  _141
REMARK   57  A    between atoms: _141  and  _142
REMARK   58  A    between atoms: _141  and  _144
REMARK   59  A    between atoms: _144  and  _145
REMARK   60  A    between atoms: _150  and  _151
REMARK   61  A    between atoms: _153  and  _155
REMARK   62  A    between atoms: _155  and  _156
REMARK   63  A    between atoms: _155  and  _158
REMARK   64  A    between atoms: _158  and  _159
REMARK   65  A    between atoms: _162  and  _164
REMARK   66  A    between atoms: _164  and  _165
REMARK   67  A    between atoms: _164  and  _167
REMARK   68  A    between atoms: _167  and  _168
REMARK   69  A    between atoms: _168  and  _169
REMARK   70  A    between atoms: _174  and  _176
REMARK   71  A    between atoms: _176  and  _177
REMARK   72  A    between atoms: _179  and  _181
REMARK   73  A    between atoms: _181  and  _182
REMARK   74  A    between atoms: _181  and  _184
REMARK   75  A    between atoms: _184  and  _185
REMARK   76  A    between atoms: _185  and  _186
REMARK   77  A    between atoms: _186  and  _187
REMARK   78  A    between atoms: _187  and  _188
REMARK   79  A    between atoms: _192  and  _194
REMARK   80  A    between atoms: _194  and  _195
REMARK   81  A    between atoms: _194  and  _197
REMARK   82  A    between atoms: _197  and  _198
REMARK   83  A    between atoms: _208  and  _210
REMARK   84  A    between atoms: _210  and  _211
REMARK   85  A    between atoms: _210  and  _213
REMARK   86  A    between atoms: _213  and  _214
REMARK   87  A    between atoms: _217  and  _219
REMARK   88  A    between atoms: _219  and  _220
REMARK   89  A    between atoms: _219  and  _222
REMARK   90  A    between atoms: _222  and  _223
REMARK   91  A    between atoms: _223  and  _224
REMARK   92  A    between atoms: _224  and  _225
REMARK   93  A    between atoms: _225  and  _226
REMARK   94  A    between atoms: _230  and  _232
REMARK   95  A    between atoms: _232  and  _233
REMARK   96  A    between atoms: _232  and  _235
REMARK   97  A    between atoms: _235  and  _236
REMARK   98  A    between atoms: _242  and  _244
REMARK   99  A    between atoms: _244  and  _245
REMARK  100  A    between atoms: _244  and  _247
REMARK  101  A    between atoms: _247  and  _248
REMARK  102  A    between atoms: _254  and  _256
REMARK  103  A    between atoms: _256  and  _257
REMARK  104  A    between atoms: _256  and  _259
REMARK  105  A    between atoms: _259  and  _260
REMARK  106  A    between atoms: _263  and  _265
REMARK  107  A    between atoms: _265  and  _266
REMARK  108  A    between atoms: _265  and  _268
REMARK  109  A    between atoms: _268  and  _269
REMARK  110  A    between atoms: _274  and  _276
REMARK  111  A    between atoms: _276  and  _277
REMARK  112  A    between atoms: _276  and  _279
REMARK  113  A    between atoms: _279  and  _280
REMARK  114  A    between atoms: _282  and  _284
REMARK  115  A    between atoms: _284  and  _285
REMARK  116  A    between atoms: _284  and  _287
REMARK  117  A    between atoms: _287  and  _288
REMARK  118  A    between atoms: _298  and  _300
REMARK  119  A    between atoms: _300  and  _301
REMARK  120  A    between atoms: _303  and  _305
REMARK  121  A    between atoms: _305  and  _306
REMARK  122  A    between atoms: _305  and  _308
REMARK  123  A    between atoms: _308  and  _309
REMARK  124  A    between atoms: _312  and  _314
REMARK  125  A    between atoms: _314  and  _315
REMARK  126  A    between atoms: _314  and  _317
REMARK  127  A    between atoms: _317  and  _318
REMARK  128  A    between atoms: _321  and  _323
REMARK  129  A    between atoms: _323  and  _324
REMARK  130  A    between atoms: _326  and  _328
REMARK  131  A    between atoms: _328  and  _329
REMARK  132  A    between atoms: _328  and  _331
REMARK  133  A    between atoms: _331  and  _332
REMARK  134  A    between atoms: _335  and  _337
REMARK  135  A    between atoms: _337  and  _338
REMARK  136  A    between atoms: _341  and  _343
REMARK  137  A    between atoms: _343  and  _344
REMARK  138  A    between atoms: _343  and  _346
REMARK  139  A    between atoms: _346  and  _347
REMARK  140  A    between atoms: _350  and  _352
REMARK  141  A    between atoms: _352  and  _353
REMARK  142  A    between atoms: _352  and  _355
REMARK  143  A    between atoms: _355  and  _356
REMARK  144  A    between atoms: _361  and  _362
REMARK  145  A    between atoms: _364  and  _366
REMARK  146  A    between atoms: _366  and  _367
REMARK  147  A    between atoms: _366  and  _369
REMARK  148  A    between atoms: _369  and  _370
REMARK  149  A    between atoms: _375  and  _376
REMARK  150  A    between atoms: _378  and  _380
REMARK  151  A    between atoms: _380  and  _381
REMARK  152  A    between atoms: _380  and  _383
REMARK  153  A    between atoms: _383  and  _384
REMARK  154  A    between atoms: _387  and  _389
REMARK  155  A    between atoms: _389  and  _390
REMARK  156  A    between atoms: _389  and  _392
REMARK  157  A    between atoms: _392  and  _393
REMARK  158  A    between atoms: _393  and  _394
REMARK  159  A    between atoms: _394  and  _395
REMARK  160  A    between atoms: _395  and  _396
REMARK  161  A    between atoms: _400  and  _402
REMARK  162  A    between atoms: _402  and  _403
REMARK  163  A    between atoms: _402  and  _405
REMARK  164  A    between atoms: _405  and  _406
REMARK  165  A    between atoms: _409  and  _411
REMARK  166  A    between atoms: _411  and  _412
REMARK  167  A    between atoms: _411  and  _414
REMARK  168  A    between atoms: _417  and  _419
REMARK  169  A    between atoms: _419  and  _420
REMARK  170  A    between atoms: _419  and  _422
REMARK  171  A    between atoms: _422  and  _423
REMARK  172  A    between atoms: _426  and  _428
REMARK  173  A    between atoms: _428  and  _429
REMARK  174  A    between atoms: _428  and  _431
REMARK  175  A    between atoms: _431  and  _432
REMARK  176  A    between atoms: _434  and  _436
REMARK  177  A    between atoms: _436  and  _437
REMARK  178  A    between atoms: _439  and  _441
REMARK  179  A    between atoms: _441  and  _442
REMARK  180  A    between atoms: _441  and  _444
REMARK  181  A    between atoms: _444  and  _445
REMARK  182  A    between atoms: _448  and  _450
REMARK  183  A    between atoms: _450  and  _451
REMARK  184  A    between atoms: _450  and  _453
REMARK  185  A    between atoms: _453  and  _454
REMARK  186  A    between atoms: _457  and  _459
REMARK  187  A    between atoms: _459  and  _460
REMARK  188  A    between atoms: _459  and  _462
REMARK  189  A    between atoms: _462  and  _463
REMARK  190  A    between atoms: _468  and  _470
REMARK  191  A    between atoms: _470  and  _471
REMARK  192  A    between atoms: _470  and  _473
REMARK  193  A    between atoms: _473  and  _474
REMARK  194  A    between atoms: _474  and  _475
REMARK  195  A    between atoms: _475  and  _476
REMARK  196  A    between atoms: _485  and  _487
REMARK  197  A    between atoms: _487  and  _488
REMARK  198  A    between atoms: _487  and  _490
REMARK  199  A    between atoms: _490  and  _491
REMARK  200  A    between atoms: _493  and  _495
REMARK  201  A    between atoms: _495  and  _496
REMARK  202  A    between atoms: _495  and  _498
REMARK  203  A    between atoms: _498  and  _499
REMARK  204  A    between atoms: _499  and  _500
REMARK  205  A    between atoms: _505  and  _507
REMARK  206  A    between atoms: _507  and  _508
REMARK  207  A    between atoms: _507  and  _510
REMARK  208  A    between atoms: _510  and  _511
REMARK  209  A    between atoms: _513  and  _515
REMARK  210  A    between atoms: _515  and  _516
REMARK  211  A    between atoms: _515  and  _518
REMARK  212  A    between atoms: _518  and  _519
REMARK  213  A    between atoms: _521  and  _523
REMARK  214  A    between atoms: _523  and  _524
REMARK  215  A    between atoms: _523  and  _526
REMARK  216  A    between atoms: _526  and  _527
REMARK  217  A    between atoms: _530  and  _532
REMARK  218  A    between atoms: _532  and  _533
REMARK  219  A    between atoms: _535  and  _537
REMARK  220  A    between atoms: _537  and  _538
REMARK  221  A    between atoms: _537  and  _540
REMARK  222  A    between atoms: _540  and  _541
REMARK  223  A    between atoms: _544  and  _546
REMARK  224  A    between atoms: _546  and  _547
REMARK  225  A    between atoms: _546  and  _549
REMARK  226  A    between atoms: _552  and  _554
REMARK  227  A    between atoms: _554  and  _555
REMARK  228  A    between atoms: _554  and  _557
REMARK  229  A    between atoms: _557  and  _558
REMARK  230  A    between atoms: _558  and  _559
REMARK                            x       y       z     vdW  Elec       q    Type
REMARK                         _______ _______ _______ _____ _____    ______ ____
ROOT
ATOM      1  CA  GLN A   5      -4.806  11.853  26.394  0.00  0.00    +0.149 C 
ENDROOT
BRANCH   1   2
ATOM      2  C   GLN A   5      -4.979  10.357  26.660  0.00  0.00    +0.241 C 
ATOM      3  N   GLY A   6      -5.985  10.010  27.461  0.00  0.00    -0.295 N 
ATOM      4  H   GLY A   6      -6.606  10.756  27.835  0.00  0.00    +0.150 HD
ATOM      5  O   GLN A   5      -4.208   9.539  26.151  0.00  0.00    -0.273 OA
BRANCH   3   6
ATOM      6  CA  GLY A   6      -6.250   8.623  27.834  0.00  0.00    +0.176 C 
BRANCH   6   7
ATOM      7  C   GLY A   6      -7.594   8.471  28.518  0.00  0.00    +0.243 C 
ATOM      8  N   LYS A   7      -7.900   7.253  28.955  0.00  0.00    -0.297 N 
ATOM      9  H   LYS A   7      -7.203   6.488  28.849  0.00  0.00    +0.150 HD
ATOM     10  O   GLY A   6      -8.341   9.443  28.654  0.00  0.00    -0.273 OA
BRANCH   8  11
ATOM     11  CA  LYS A   7      -9.192   6.957  29.582  0.00  0.00    +0.149 C 
BRANCH  11  12
ATOM     12  C   LYS A   7      -9.177   5.653  30.378  0.00  0.00    +0.241 C 
ATOM     13  N   TRP A   8     -10.058   5.562  31.369  0.00  0.00    -0.298 N 
ATOM     14  H   TRP A   8     -10.603   6.404  31.643  0.00  0.00    +0.150 HD
ATOM     15  O   LYS A   7      -8.384   4.756  30.106  0.00  0.00    -0.273 OA
BRANCH  13  16
ATOM     16  CA  TRP A   8     -10.279   4.307  32.082  0.00  0.00    +0.141 C 
BRANCH  16  17
ATOM     17  C   TRP A   8     -11.747   4.126  32.450  0.00  0.00    +0.227 C 
ATOM     18  O   TRP A   8     -12.505   5.096  32.544  0.00  0.00    -0.286 OA
ENDBRANCH  16  17
BRANCH  16  19
ATOM     19  CB  TRP A   8      -9.378   4.183  33.321  0.00  0.00    +0.056 C 
BRANCH  19  20
ATOM     20  CG  TRP A   8      -9.568   5.246  34.370  0.00  0.00    -0.002 A 
ATOM     21  CD2 TRP A   8     -10.516   5.238  35.451  0.00  0.00    +0.013 A 
ATOM     22  CE2 TRP A   8     -10.322   6.431  36.185  0.00  0.00    +0.056 A 
ATOM     23  CZ2 TRP A   8     -11.085   6.751  37.315  0.00  0.00    +0.017 A 
ATOM     24  CH2 TRP A   8     -12.052   5.859  37.702  0.00  0.00    +0.001 A 
ATOM     25  CZ3 TRP A   8     -12.274   4.664  36.992  0.00  0.00    +0.000 A 
ATOM     26  NE1 TRP A   8      -9.303   7.121  35.583  0.00  0.00    -0.352 N 
ATOM     27  HE1 TRP A   8      -8.928   8.039  35.896  0.00  0.00    +0.166 HD
ATOM     28  CE3 TRP A   8     -11.513   4.343  35.866  0.00  0.00    +0.001 A 
ATOM     29  CD1 TRP A   8      -8.856   6.404  34.499  0.00  0.00    +0.068 A 
ENDBRANCH  19  20
ENDBRANCH  16  19
ENDBRANCH  13  16
ENDBRANCH  11  12
BRANCH  11  30
ATOM     30  CB  LYS A   7     -10.312   6.917  28.526  0.00  0.00    +0.029 C 
BRANCH  30  31
ATOM     31  CG  LYS A   7     -10.103   5.904  27.410  0.00  0.00    +0.000 C 
BRANCH  31  32
ATOM     32  CD  LYS A   7     -11.239   5.916  26.402  0.00  0.00    -0.024 C 
BRANCH  32  33
ATOM     33  CE  LYS A   7     -10.897   5.026  25.211  0.00  0.00    -0.086 C 
BRANCH  33  34
ATOM     34  NZ  LYS A   7     -12.024   4.877  24.248  0.00  0.00    +0.380 N 
ATOM     35  HZ1 LYS A   7     -12.840   4.453  24.734  0.00  0.00    -0.089 HD
ATOM     36  HZ2 LYS A   7     -12.287   5.812  23.877  0.00  0.00    -0.089 HD
ATOM     37  HZ3 LYS A   7     -11.729   4.262  23.463  0.00  0.00    -0.089 HD
ENDBRANCH  33  34
ENDBRANCH  32  33
ENDBRANCH  31  32
ENDBRANCH  30  31
ENDBRANCH  11  30
ENDBRANCH   8  11
ENDBRANCH   6   7
ENDBRANCH   3   6
ENDBRANCH   1   2
BRANCH   1  39
ATOM     38  C   THR A   4      -6.911  12.903  25.704  0.00  0.00    +0.243 C 
ATOM     39  N   GLN A   5      -6.012  12.645  26.653  0.00  0.00    -0.297 N 
ATOM     40  H   GLN A   5      -6.171  13.018  27.610  0.00  0.00    +0.150 HD
ATOM     41  O   THR A   4      -6.884  12.379  24.590  0.00  0.00    -0.273 OA
BRANCH  38  42
ATOM     42  CA  THR A   4      -8.018  13.890  26.068  0.00  0.00    +0.176 C 
BRANCH  42  44
ATOM     43  C   TYR A   3      -9.163  12.596  27.778  0.00  0.00    +0.241 C 
ATOM     44  N   THR A   4      -8.474  13.683  27.444  0.00  0.00    -0.295 N 
ATOM     45  H   THR A   4      -8.256  14.396  28.170  0.00  0.00    +0.150 HD
ATOM     46  O   TYR A   3      -9.514  11.749  26.952  0.00  0.00    -0.273 OA
BRANCH  43  47
ATOM     47  CA  TYR A   3      -9.522  12.416  29.247  0.00  0.00    +0.153 C 
BRANCH  47  50
ATOM     48  C   PRO A   2     -11.450  11.073  29.956  0.00  0.00    +0.241 C 
ATOM     49  O   PRO A   2     -11.896  11.938  30.712  0.00  0.00    -0.273 OA
ATOM     50  N   TYR A   3     -10.284  11.173  29.328  0.00  0.00    -0.297 N 
ATOM     51  H   TYR A   3      -9.894  10.324  28.871  0.00  0.00    +0.150 HD
BRANCH  48  58
ATOM     52  C   VAL A   1     -12.571   8.667  31.849  0.00  0.00    +0.241 C 
ATOM     53  O   VAL A   1     -11.428   8.192  31.838  0.00  0.00    -0.273 OA
ATOM     54  N   PRO A   2     -13.074   9.382  30.822  0.00  0.00    -0.272 N 
ATOM     55  CD  PRO A   2     -14.474   9.817  30.638  0.00  0.00    +0.094 C 
ATOM     56  CG  PRO A   2     -14.473  10.485  29.276  0.00  0.00    +0.024 C 
ATOM     57  CB  PRO A   2     -13.247  10.007  28.572  0.00  0.00    +0.031 C 
ATOM     58  CA  PRO A   2     -12.232   9.783  29.697  0.00  0.00    +0.152 C 
BRANCH  52  59
ATOM     59  CA  VAL A   1     -13.503   8.413  33.037  0.00  0.00    +0.145 C 
BRANCH  59  60
ATOM     60  CB  VAL A   1     -12.720   8.408  34.378  0.00  0.00    +0.025 C 
ATOM     61  CG2 VAL A   1     -13.661   8.113  35.542  0.00  0.00    +0.002 C 
ATOM     62  CG1 VAL A   1     -12.017   9.736  34.605  0.00  0.00    +0.002 C 
ENDBRANCH  59  60
BRANCH  59  63
ATOM     63  N   VAL A   1     -14.260   7.172  32.850  0.00  0.00    -0.238 NA
ATOM     64  H   VAL A   1     -13.742   6.288  32.673  0.00  0.00    +0.142 HD
ENDBRANCH  59  63
ENDBRANCH  52  59
ENDBRANCH  48  58
ENDBRANCH  47  50
BRANCH  47  65
ATOM     65  CB  TYR A   3      -8.258  12.338  30.111  0.00  0.00    +0.055 C 
BRANCH  65  66
ATOM     66  CG  TYR A   3      -8.537  12.178  31.589  0.00  0.00    -0.020 A 
ATOM     67  CD2 TYR A   3      -8.759  13.289  32.400  0.00  0.00    -0.001 A 
ATOM     68  CE2 TYR A   3      -9.022  13.147  33.754  0.00  0.00    +0.036 A 
ATOM     69  CZ  TYR A   3      -9.065  11.883  34.313  0.00  0.00    +0.134 A 
ATOM     70  CE1 TYR A   3      -8.846  10.760  33.531  0.00  0.00    +0.036 A 
ATOM     71  CD1 TYR A   3      -8.587  10.912  32.176  0.00  0.00    -0.001 A 
BRANCH  69  72
ATOM     72  OH  TYR A   3      -9.325  11.742  35.657  0.00  0.00    -0.506 OA
ATOM     73  HH  TYR A   3      -9.456  12.636  36.062  0.00  0.00    +0.292 HD
ENDBRANCH  69  72
ENDBRANCH  65  66
ENDBRANCH  47  65
ENDBRANCH  43  47
ENDBRANCH  42  44
BRANCH  42  74
ATOM     74  CB  THR A   4      -7.479  15.321  25.828  0.00  0.00    +0.137 C 
ATOM     75  CG2 THR A   4      -7.975  15.859  24.488  0.00  0.00    +0.034 C 
BRANCH  74  76
ATOM     76  OG1 THR A   4      -7.890  16.195  26.890  0.00  0.00    -0.382 OA
ATOM     77  HG1 THR A   4      -7.536  15.856  27.750  0.00  0.00    +0.210 HD
ENDBRANCH  74  76
ENDBRANCH  42  74
ENDBRANCH  38  42
ENDBRANCH   1  39
BRANCH   1  78
ATOM     78  CB  GLN A   5      -3.604  12.408  27.186  0.00  0.00    +0.039 C 
BRANCH  78  79
ATOM     79  CG  GLN A   5      -3.671  12.250  28.721  0.00  0.00    +0.087 C 
BRANCH  79  80
ATOM     80  CD  GLN A   5      -4.470  13.344  29.431  0.00  0.00    +0.219 C 
ATOM     81  NE2 GLN A   5      -4.166  13.555  30.703  0.00  0.00    -0.329 N 
ATOM     82 HE21 GLN A   5      -4.678  14.278  31.247  0.00  0.00    +0.145 HD
ATOM     83 HE22 GLN A   5      -3.415  12.997  31.158  0.00  0.00    +0.145 HD
ATOM     84  OE1 GLN A   5      -5.352  13.979  28.848  0.00  0.00    -0.275 OA
ENDBRANCH  79  80
ENDBRANCH  78  79
ENDBRANCH   1  78
TORSDOF 31
REMARK  Name = ../refined-set-2016/4fsl/4fsl_pocket.pdb
REMARK  230 active torsions:
REMARK  status: ('A' for Active; 'I' for Inactive)
REMARK    1  A    between atoms: _1  and  _3
REMARK    2  A    between atoms: _3  and  _4
REMARK    3  A    between atoms: _3  and  _6
REMARK    4  A    between atoms: _6  and  _7
REMARK    5  A    between atoms: _9  and  _11
REMARK    6  A    between atoms: _11  and  _12
REMARK    7  A    between atoms: _14  and  _16
REMARK    8  A    between atoms: _16  and  _17
REMARK    9  A    between atoms: _16  and  _19
REMARK   10  A    between atoms: _19  and  _20
REMARK   11  A    between atoms: _20  and  _21
REMARK   12  A    between atoms: _26  and  _28
REMARK   13  A    between atoms: _28  and  _29
REMARK   14  A    between atoms: _31  and  _33
REMARK   15  A    between atoms: _33  and  _34
REMARK   16  A    between atoms: _33  and  _36
REMARK   17  A    between atoms: _36  and  _37
REMARK   18  A    between atoms: _42  and  _43
REMARK   19  A    between atoms: _45  and  _47
REMARK   20  A    between atoms: _47  and  _48
REMARK   21  A    between atoms: _47  and  _50
REMARK   22  A    between atoms: _50  and  _51
REMARK   23  A    between atoms: _54  and  _56
REMARK   24  A    between atoms: _56  and  _57
REMARK   25  A    between atoms: _56  and  _59
REMARK   26  A    between atoms: _62  and  _64
REMARK   27  A    between atoms: _64  and  _65
REMARK   28  A    between atoms: _64  and  _67
REMARK   29  A    between atoms: _67  and  _68
REMARK   30  A    between atoms: _71  and  _73
REMARK   31  A    between atoms: _73  and  _74
REMARK   32  A    between atoms: _73  and  _76
REMARK   33  A    between atoms: _76  and  _77
REMARK   34  A    between atoms: _80  and  _82
REMARK   35  A    between atoms: _82  and  _83
REMARK   36  A    between atoms: _85  and  _87
REMARK   37  A    between atoms: _87  and  _88
REMARK   38  A    between atoms: _87  and  _90
REMARK   39  A    between atoms: _90  and  _91
REMARK   40  A    between atoms: _93  and  _95
REMARK   41  A    between atoms: _95  and  _96
REMARK   42  A    between atoms: _95  and  _98
REMARK   43  A    between atoms: _98  and  _99
REMARK   44  A    between atoms: _101  and  _103
REMARK   45  A    between atoms: _103  and  _104
REMARK   46  A    between atoms: _103  and  _106
REMARK   47  A    between atoms: _106  and  _107
REMARK   48  A    between atoms: _112  and  _114
REMARK   49  A    between atoms: _114  and  _115
REMARK   50  A    between atoms: _114  and  _117
REMARK   51  A    between atoms: _117  and  _118
REMARK   52  A    between atoms: _124  and  _126
REMARK   53  A    between atoms: _126  and  _127
REMARK   54  A    between atoms: _126  and  _129
REMARK   55  A    between atoms: _133  and  _134
REMARK   56  A    between atoms: _139  and  _141
REMARK   57  A    between atoms: _141  and  _142
REMARK   58  A    between atoms: _141  and  _144
REMARK   59  A    between atoms: _144  and  _145
REMARK   60  A    between atoms: _150  and  _151
REMARK   61  A    between atoms: _153  and  _155
REMARK   62  A    between atoms: _155  and  _156
REMARK   63  A    between atoms: _155  and  _158
REMARK   64  A    between atoms: _158  and  _159
REMARK   65  A    between atoms: _162  and  _164
REMARK   66  A    between atoms: _164  and  _165
REMARK   67  A    between atoms: _164  and  _167
REMARK   68  A    between atoms: _167  and  _168
REMARK   69  A    between atoms: _168  and  _169
REMARK   70  A    between atoms: _174  and  _176
REMARK   71  A    between atoms: _176  and  _177
REMARK   72  A    between atoms: _179  and  _181
REMARK   73  A    between atoms: _181  and  _182
REMARK   74  A    between atoms: _181  and  _184
REMARK   75  A    between atoms: _184  and  _185
REMARK   76  A    between atoms: _185  and  _186
REMARK   77  A    between atoms: _186  and  _187
REMARK   78  A    between atoms: _187  and  _188
REMARK   79  A    between atoms: _192  and  _194
REMARK   80  A    between atoms: _194  and  _195
REMARK   81  A    between atoms: _194  and  _197
REMARK   82  A    between atoms: _197  and  _198
REMARK   83  A    between atoms: _208  and  _210
REMARK   84  A    between atoms: _210  and  _211
REMARK   85  A    between atoms: _210  and  _213
REMARK   86  A    between atoms: _213  and  _214
REMARK   87  A    between atoms: _217  and  _219
REMARK   88  A    between atoms: _219  and  _220
REMARK   89  A    between atoms: _219  and  _222
REMARK   90  A    between atoms: _222  and  _223
REMARK   91  A    between atoms: _223  and  _224
REMARK   92  A    between atoms: _224  and  _225
REMARK   93  A    between atoms: _225  and  _226
REMARK   94  A    between atoms: _230  and  _232
REMARK   95  A    between atoms: _232  and  _233
REMARK   96  A    between atoms: _232  and  _235
REMARK   97  A    between atoms: _235  and  _236
REMARK   98  A    between atoms: _242  and  _244
REMARK   99  A    between atoms: _244  and  _245
REMARK  100  A    between atoms: _244  and  _247
REMARK  101  A    between atoms: _247  and  _248
REMARK  102  A    between atoms: _254  and  _256
REMARK  103  A    between atoms: _256  and  _257
REMARK  104  A    between atoms: _256  and  _259
REMARK  105  A    between atoms: _259  and  _260
REMARK  106  A    between atoms: _263  and  _265
REMARK  107  A    between atoms: _265  and  _266
REMARK  108  A    between atoms: _265  and  _268
REMARK  109  A    between atoms: _268  and  _269
REMARK  110  A    between atoms: _274  and  _276
REMARK  111  A    between atoms: _276  and  _277
REMARK  112  A    between atoms: _276  and  _279
REMARK  113  A    between atoms: _279  and  _280
REMARK  114  A    between atoms: _282  and  _284
REMARK  115  A    between atoms: _284  and  _285
REMARK  116  A    between atoms: _284  and  _287
REMARK  117  A    between atoms: _287  and  _288
REMARK  118  A    between atoms: _298  and  _300
REMARK  119  A    between atoms: _300  and  _301
REMARK  120  A    between atoms: _303  and  _305
REMARK  121  A    between atoms: _305  and  _306
REMARK  122  A    between atoms: _305  and  _308
REMARK  123  A    between atoms: _308  and  _309
REMARK  124  A    between atoms: _312  and  _314
REMARK  125  A    between atoms: _314  and  _315
REMARK  126  A    between atoms: _314  and  _317
REMARK  127  A    between atoms: _317  and  _318
REMARK  128  A    between atoms: _321  and  _323
REMARK  129  A    between atoms: _323  and  _324
REMARK  130  A    between atoms: _326  and  _328
REMARK  131  A    between atoms: _328  and  _329
REMARK  132  A    between atoms: _328  and  _331
REMARK  133  A    between atoms: _331  and  _332
REMARK  134  A    between atoms: _335  and  _337
REMARK  135  A    between atoms: _337  and  _338
REMARK  136  A    between atoms: _341  and  _343
REMARK  137  A    between atoms: _343  and  _344
REMARK  138  A    between atoms: _343  and  _346
REMARK  139  A    between atoms: _346  and  _347
REMARK  140  A    between atoms: _350  and  _352
REMARK  141  A    between atoms: _352  and  _353
REMARK  142  A    between atoms: _352  and  _355
REMARK  143  A    between atoms: _355  and  _356
REMARK  144  A    between atoms: _361  and  _362
REMARK  145  A    between atoms: _364  and  _366
REMARK  146  A    between atoms: _366  and  _367
REMARK  147  A    between atoms: _366  and  _369
REMARK  148  A    between atoms: _369  and  _370
REMARK  149  A    between atoms: _375  and  _376
REMARK  150  A    between atoms: _378  and  _380
REMARK  151  A    between atoms: _380  and  _381
REMARK  152  A    between atoms: _380  and  _383
REMARK  153  A    between atoms: _383  and  _384
REMARK  154  A    between atoms: _387  and  _389
REMARK  155  A    between atoms: _389  and  _390
REMARK  156  A    between atoms: _389  and  _392
REMARK  157  A    between atoms: _392  and  _393
REMARK  158  A    between atoms: _393  and  _394
REMARK  159  A    between atoms: _394  and  _395
REMARK  160  A    between atoms: _395  and  _396
REMARK  161  A    between atoms: _400  and  _402
REMARK  162  A    between atoms: _402  and  _403
REMARK  163  A    between atoms: _402  and  _405
REMARK  164  A    between atoms: _405  and  _406
REMARK  165  A    between atoms: _409  and  _411
REMARK  166  A    between atoms: _411  and  _412
REMARK  167  A    between atoms: _411  and  _414
REMARK  168  A    between atoms: _417  and  _419
REMARK  169  A    between atoms: _419  and  _420
REMARK  170  A    between atoms: _419  and  _422
REMARK  171  A    between atoms: _422  and  _423
REMARK  172  A    between atoms: _426  and  _428
REMARK  173  A    between atoms: _428  and  _429
REMARK  174  A    between atoms: _428  and  _431
REMARK  175  A    between atoms: _431  and  _432
REMARK  176  A    between atoms: _434  and  _436
REMARK  177  A    between atoms: _436  and  _437
REMARK  178  A    between atoms: _439  and  _441
REMARK  179  A    between atoms: _441  and  _442
REMARK  180  A    between atoms: _441  and  _444
REMARK  181  A    between atoms: _444  and  _445
REMARK  182  A    between atoms: _448  and  _450
REMARK  183  A    between atoms: _450  and  _451
REMARK  184  A    between atoms: _450  and  _453
REMARK  185  A    between atoms: _453  and  _454
REMARK  186  A    between atoms: _457  and  _459
REMARK  187  A    between atoms: _459  and  _460
REMARK  188  A    between atoms: _459  and  _462
REMARK  189  A    between atoms: _462  and  _463
REMARK  190  A    between atoms: _468  and  _470
REMARK  191  A    between atoms: _470  and  _471
REMARK  192  A    between atoms: _470  and  _473
REMARK  193  A    between atoms: _473  and  _474
REMARK  194  A    between atoms: _474  and  _475
REMARK  195  A    between atoms: _475  and  _476
REMARK  196  A    between atoms: _485  and  _487
REMARK  197  A    between atoms: _487  and  _488
REMARK  198  A    between atoms: _487  and  _490
REMARK  199  A    between atoms: _490  and  _491
REMARK  200  A    between atoms: _493  and  _495
REMARK  201  A    between atoms: _495  and  _496
REMARK  202  A    between atoms: _495  and  _498
REMARK  203  A    between atoms: _498  and  _499
REMARK  204  A    between atoms: _499  and  _500
REMARK  205  A    between atoms: _505  and  _507
REMARK  206  A    between atoms: _507  and  _508
REMARK  207  A    between atoms: _507  and  _510
REMARK  208  A    between atoms: _510  and  _511
REMARK  209  A    between atoms: _513  and  _515
REMARK  210  A    between atoms: _515  and  _516
REMARK  211  A    between atoms: _515  and  _518
REMARK  212  A    between atoms: _518  and  _519
REMARK  213  A    between atoms: _521  and  _523
REMARK  214  A    between atoms: _523  and  _524
REMARK  215  A    between atoms: _523  and  _526
REMARK  216  A    between atoms: _526  and  _527
REMARK  217  A    between atoms: _530  and  _532
REMARK  218  A    between atoms: _532  and  _533
REMARK  219  A    between atoms: _535  and  _537
REMARK  220  A    between atoms: _537  and  _538
REMARK  221  A    between atoms: _537  and  _540
REMARK  222  A    between atoms: _540  and  _541
REMARK  223  A    between atoms: _544  and  _546
REMARK  224  A    between atoms: _546  and  _547
REMARK  225  A    between atoms: _546  and  _549
REMARK  226  A    between atoms: _552  and  _554
REMARK  227  A    between atoms: _554  and  _555
REMARK  228  A    between atoms: _554  and  _557
REMARK  229  A    between atoms: _557  and  _558
REMARK  230  A    between atoms: _558  and  _559
REMARK                            x       y       z     vdW  Elec       q    Type
REMARK                         _______ _______ _______ _____ _____    ______ ____
ROOT
ATOM      1  C   PHE A   3      -2.734   5.529  32.264  0.00  0.00    +0.241 C 
ATOM      2  O   PHE A   3      -2.084   6.445  32.777  0.00  0.00    -0.273 OA
ATOM      3  N   PHE A   4      -2.387   4.249  32.365  0.00  0.00    -0.297 N 
ATOM      4  H   PHE A   4      -2.977   3.526  31.906  0.00  0.00    +0.150 HD
ENDROOT
BRANCH   1   5
ATOM      5  CA  PHE A   3      -4.001   5.829  31.458  0.00  0.00    +0.153 C 
BRANCH   5   7
ATOM      6  C   LYS A   2      -3.278   5.747  29.137  0.00  0.00    +0.241 C 
ATOM      7  N   PHE A   3      -3.937   5.189  30.150  0.00  0.00    -0.297 N 
ATOM      8  H   PHE A   3      -4.416   4.277  30.005  0.00  0.00    +0.150 HD
ATOM      9  O   LYS A   2      -2.764   6.865  29.214  0.00  0.00    -0.273 OA
BRANCH   6  10
ATOM     10  CA  LYS A   2      -3.180   4.935  27.839  0.00  0.00    +0.149 C 
BRANCH  10  13
ATOM     11  C   ASP A   1      -5.511   4.131  27.691  0.00  0.00    +0.239 C 
ATOM     12  O   ASP A   1      -5.993   5.255  27.863  0.00  0.00    -0.274 OA
ATOM     13  N   LYS A   2      -4.201   3.884  27.692  0.00  0.00    -0.297 N 
ATOM     14  H   LYS A   2      -3.884   2.899  27.583  0.00  0.00    +0.150 HD
BRANCH  11  15
ATOM     15  CA  ASP A   1      -6.419   2.920  27.499  0.00  0.00    +0.156 C 
BRANCH  15  16
ATOM     16  N   ASP A   1      -7.092   2.652  28.756  0.00  0.00    -0.238 NA
ATOM     17  H   ASP A   1      -7.495   3.452  29.285  0.00  0.00    +0.142 HD
ENDBRANCH  15  16
BRANCH  15  18
ATOM     18  CB  ASP A   1      -7.459   3.183  26.402  0.00  0.00    +0.140 C 
BRANCH  18  19
ATOM     19  CG  ASP A   1      -6.836   3.358  25.029  0.00  0.00    +0.367 C 
ATOM     20  OD2 ASP A   1      -5.995   2.520  24.642  0.00  0.00    -0.246 OA
ATOM     21  OD1 ASP A   1      -7.187   4.337  24.334  0.00  0.00    -0.246 OA
ENDBRANCH  18  19
ENDBRANCH  15  18
ENDBRANCH  11  15
ENDBRANCH  10  13
BRANCH  10  22
ATOM     22  CB  LYS A   2      -3.179   5.877  26.624  0.00  0.00    +0.029 C 
BRANCH  22  23
ATOM     23  CG  LYS A   2      -2.515   5.297  25.386  0.00  0.00    +0.000 C 
BRANCH  23  24
ATOM     24  CD  LYS A   2      -2.942   6.035  24.126  0.00  0.00    -0.024 C 
BRANCH  24  25
ATOM     25  CE  LYS A   2      -2.251   5.449  22.899  0.00  0.00    -0.086 C 
BRANCH  25  26
ATOM     26  NZ  LYS A   2      -2.902   5.872  21.625  0.00  0.00    +0.380 N 
ATOM     27  HZ1 LYS A   2      -3.892   5.553  21.620  0.00  0.00    -0.089 HD
ATOM     28  HZ2 LYS A   2      -2.870   6.909  21.548  0.00  0.00    -0.089 HD
ATOM     29  HZ3 LYS A   2      -2.396   5.448  20.821  0.00  0.00    -0.089 HD
ENDBRANCH  25  26
ENDBRANCH  24  25
ENDBRANCH  23  24
ENDBRANCH  22  23
ENDBRANCH  10  22
ENDBRANCH   6  10
ENDBRANCH   5   7
BRANCH   5  30
ATOM     30  CB  PHE A   3      -5.259   5.395  32.220  0.00  0.00    +0.055 C 
BRANCH  30  31
ATOM     31  CG  PHE A   3      -5.354   5.954  33.618  0.00  0.00    -0.020 A 
ATOM     32  CD2 PHE A   3      -5.211   5.123  34.722  0.00  0.00    -0.004 A 
ATOM     33  CE2 PHE A   3      -5.302   5.630  36.017  0.00  0.00    -0.000 A 
ATOM     34  CZ  PHE A   3      -5.543   6.981  36.215  0.00  0.00    -0.000 A 
ATOM     35  CE1 PHE A   3      -5.692   7.825  35.121  0.00  0.00    -0.000 A 
ATOM     36  CD1 PHE A   3      -5.599   7.308  33.830  0.00  0.00    -0.004 A 
ENDBRANCH  30  31
ENDBRANCH   5  30
ENDBRANCH   1   5
BRANCH   3  37
ATOM     37  CA  PHE A   4      -1.203   3.836  33.102  0.00  0.00    +0.153 C 
BRANCH  37  38
ATOM     38  C   PHE A   4       0.081   4.165  32.344  0.00  0.00    +0.241 C 
ATOM     39  N   ILE A   5       1.169   4.327  33.094  0.00  0.00    -0.297 N 
ATOM     40  H   ILE A   5       1.094   4.190  34.122  0.00  0.00    +0.150 HD
ATOM     41  O   PHE A   4       0.079   4.289  31.114  0.00  0.00    -0.273 OA
BRANCH  39  42
ATOM     42  CA  ILE A   5       2.467   4.691  32.524  0.00  0.00    +0.149 C 
BRANCH  42  43
ATOM     43  C   ILE A   5       3.499   3.595  32.814  0.00  0.00    +0.241 C 
ATOM     44  O   ILE A   5       3.662   3.167  33.960  0.00  0.00    -0.273 OA
ATOM     45  N   ASN A   6       4.184   3.145  31.764  0.00  0.00    -0.298 N 
ATOM     46  H   ASN A   6       3.989   3.557  30.829  0.00  0.00    +0.150 HD
BRANCH  45  47
ATOM     47  CA  ASN A   6       5.202   2.094  31.869  0.00  0.00    +0.146 C 
BRANCH  47  48
ATOM     48  C   ASN A   6       6.387   2.526  32.737  0.00  0.00    +0.227 C 
ATOM     49  O   ASN A   6       7.011   3.559  32.477  0.00  0.00    -0.286 OA
ENDBRANCH  47  48
BRANCH  47  50
ATOM     50  CB  ASN A   6       5.673   1.679  30.469  0.00  0.00    +0.112 C 
BRANCH  50  51
ATOM     51  CG  ASN A   6       6.468   0.370  30.463  0.00  0.00    +0.222 C 
ATOM     52  OD1 ASN A   6       6.537  -0.355  31.463  0.00  0.00    -0.275 OA
ATOM     53  ND2 ASN A   6       7.071   0.066  29.321  0.00  0.00    -0.329 N 
ATOM     54 HD21 ASN A   6       7.627  -0.810  29.243  0.00  0.00    +0.145 HD
ATOM     55 HD22 ASN A   6       6.988   0.703  28.503  0.00  0.00    +0.145 HD
ENDBRANCH  50  51
ENDBRANCH  47  50
ENDBRANCH  45  47
ENDBRANCH  42  43
BRANCH  42  56
ATOM     56  CB  ILE A   5       2.958   6.073  33.055  0.00  0.00    +0.027 C 
ATOM     57  CG2 ILE A   5       4.287   6.474  32.412  0.00  0.00    +0.002 C 
BRANCH  56  58
ATOM     58  CG1 ILE A   5       1.899   7.157  32.813  0.00  0.00    +0.002 C 
ATOM     59  CD1 ILE A   5       2.206   8.516  33.453  0.00  0.00    +0.000 C 
ENDBRANCH  56  58
ENDBRANCH  42  56
ENDBRANCH  39  42
ENDBRANCH  37  38
BRANCH  37  60
ATOM     60  CB  PHE A   4      -1.275   2.346  33.442  0.00  0.00    +0.055 C 
BRANCH  60  61
ATOM     61  CG  PHE A   4      -2.412   1.991  34.359  0.00  0.00    -0.020 A 
ATOM     62  CD2 PHE A   4      -2.388   2.369  35.699  0.00  0.00    -0.004 A 
ATOM     63  CE2 PHE A   4      -3.445   2.044  36.554  0.00  0.00    -0.000 A 
ATOM     64  CZ  PHE A   4      -4.545   1.337  36.065  0.00  0.00    -0.000 A 
ATOM     65  CE1 PHE A   4      -4.583   0.960  34.724  0.00  0.00    -0.000 A 
ATOM     66  CD1 PHE A   4      -3.518   1.291  33.878  0.00  0.00    -0.004 A 
ENDBRANCH  60  61
ENDBRANCH  37  60
ENDBRANCH   3  37
TORSDOF 27
REMARK  Name = ../refined-set-2016/4fsl/4fsl_pocket.pdb
REMARK  230 active torsions:
REMARK  status: ('A' for Active; 'I' for Inactive)
REMARK    1  A    between atoms: _1  and  _3
REMARK    2  A    between atoms: _3  and  _4
REMARK    3  A    between atoms: _3  and  _6
REMARK    4  A    between atoms: _6  and  _7
REMARK    5  A    between atoms: _9  and  _11
REMARK    6  A    between atoms: _11  and  _12
REMARK    7  A    between atoms: _14  and  _16
REMARK    8  A    between atoms: _16  and  _17
REMARK    9  A    between atoms: _16  and  _19
REMARK   10  A    between atoms: _19  and  _20
REMARK   11  A    between atoms: _20  and  _21
REMARK   12  A    between atoms: _26  and  _28
REMARK   13  A    between atoms: _28  and  _29
REMARK   14  A    between atoms: _31  and  _33
REMARK   15  A    between atoms: _33  and  _34
REMARK   16  A    between atoms: _33  and  _36
REMARK   17  A    between atoms: _36  and  _37
REMARK   18  A    between atoms: _42  and  _43
REMARK   19  A    between atoms: _45  and  _47
REMARK   20  A    between atoms: _47  and  _48
REMARK   21  A    between atoms: _47  and  _50
REMARK   22  A    between atoms: _50  and  _51
REMARK   23  A    between atoms: _54  and  _56
REMARK   24  A    between atoms: _56  and  _57
REMARK   25  A    between atoms: _56  and  _59
REMARK   26  A    between atoms: _62  and  _64
REMARK   27  A    between atoms: _64  and  _65
REMARK   28  A    between atoms: _64  and  _67
REMARK   29  A    between atoms: _67  and  _68
REMARK   30  A    between atoms: _71  and  _73
REMARK   31  A    between atoms: _73  and  _74
REMARK   32  A    between atoms: _73  and  _76
REMARK   33  A    between atoms: _76  and  _77
REMARK   34  A    between atoms: _80  and  _82
REMARK   35  A    between atoms: _82  and  _83
REMARK   36  A    between atoms: _85  and  _87
REMARK   37  A    between atoms: _87  and  _88
REMARK   38  A    between atoms: _87  and  _90
REMARK   39  A    between atoms: _90  and  _91
REMARK   40  A    between atoms: _93  and  _95
REMARK   41  A    between atoms: _95  and  _96
REMARK   42  A    between atoms: _95  and  _98
REMARK   43  A    between atoms: _98  and  _99
REMARK   44  A    between atoms: _101  and  _103
REMARK   45  A    between atoms: _103  and  _104
REMARK   46  A    between atoms: _103  and  _106
REMARK   47  A    between atoms: _106  and  _107
REMARK   48  A    between atoms: _112  and  _114
REMARK   49  A    between atoms: _114  and  _115
REMARK   50  A    between atoms: _114  and  _117
REMARK   51  A    between atoms: _117  and  _118
REMARK   52  A    between atoms: _124  and  _126
REMARK   53  A    between atoms: _126  and  _127
REMARK   54  A    between atoms: _126  and  _129
REMARK   55  A    between atoms: _133  and  _134
REMARK   56  A    between atoms: _139  and  _141
REMARK   57  A    between atoms: _141  and  _142
REMARK   58  A    between atoms: _141  and  _144
REMARK   59  A    between atoms: _144  and  _145
REMARK   60  A    between atoms: _150  and  _151
REMARK   61  A    between atoms: _153  and  _155
REMARK   62  A    between atoms: _155  and  _156
REMARK   63  A    between atoms: _155  and  _158
REMARK   64  A    between atoms: _158  and  _159
REMARK   65  A    between atoms: _162  and  _164
REMARK   66  A    between atoms: _164  and  _165
REMARK   67  A    between atoms: _164  and  _167
REMARK   68  A    between atoms: _167  and  _168
REMARK   69  A    between atoms: _168  and  _169
REMARK   70  A    between atoms: _174  and  _176
REMARK   71  A    between atoms: _176  and  _177
REMARK   72  A    between atoms: _179  and  _181
REMARK   73  A    between atoms: _181  and  _182
REMARK   74  A    between atoms: _181  and  _184
REMARK   75  A    between atoms: _184  and  _185
REMARK   76  A    between atoms: _185  and  _186
REMARK   77  A    between atoms: _186  and  _187
REMARK   78  A    between atoms: _187  and  _188
REMARK   79  A    between atoms: _192  and  _194
REMARK   80  A    between atoms: _194  and  _195
REMARK   81  A    between atoms: _194  and  _197
REMARK   82  A    between atoms: _197  and  _198
REMARK   83  A    between atoms: _208  and  _210
REMARK   84  A    between atoms: _210  and  _211
REMARK   85  A    between atoms: _210  and  _213
REMARK   86  A    between atoms: _213  and  _214
REMARK   87  A    between atoms: _217  and  _219
REMARK   88  A    between atoms: _219  and  _220
REMARK   89  A    between atoms: _219  and  _222
REMARK   90  A    between atoms: _222  and  _223
REMARK   91  A    between atoms: _223  and  _224
REMARK   92  A    between atoms: _224  and  _225
REMARK   93  A    between atoms: _225  and  _226
REMARK   94  A    between atoms: _230  and  _232
REMARK   95  A    between atoms: _232  and  _233
REMARK   96  A    between atoms: _232  and  _235
REMARK   97  A    between atoms: _235  and  _236
REMARK   98  A    between atoms: _242  and  _244
REMARK   99  A    between atoms: _244  and  _245
REMARK  100  A    between atoms: _244  and  _247
REMARK  101  A    between atoms: _247  and  _248
REMARK  102  A    between atoms: _254  and  _256
REMARK  103  A    between atoms: _256  and  _257
REMARK  104  A    between atoms: _256  and  _259
REMARK  105  A    between atoms: _259  and  _260
REMARK  106  A    between atoms: _263  and  _265
REMARK  107  A    between atoms: _265  and  _266
REMARK  108  A    between atoms: _265  and  _268
REMARK  109  A    between atoms: _268  and  _269
REMARK  110  A    between atoms: _274  and  _276
REMARK  111  A    between atoms: _276  and  _277
REMARK  112  A    between atoms: _276  and  _279
REMARK  113  A    between atoms: _279  and  _280
REMARK  114  A    between atoms: _282  and  _284
REMARK  115  A    between atoms: _284  and  _285
REMARK  116  A    between atoms: _284  and  _287
REMARK  117  A    between atoms: _287  and  _288
REMARK  118  A    between atoms: _298  and  _300
REMARK  119  A    between atoms: _300  and  _301
REMARK  120  A    between atoms: _303  and  _305
REMARK  121  A    between atoms: _305  and  _306
REMARK  122  A    between atoms: _305  and  _308
REMARK  123  A    between atoms: _308  and  _309
REMARK  124  A    between atoms: _312  and  _314
REMARK  125  A    between atoms: _314  and  _315
REMARK  126  A    between atoms: _314  and  _317
REMARK  127  A    between atoms: _317  and  _318
REMARK  128  A    between atoms: _321  and  _323
REMARK  129  A    between atoms: _323  and  _324
REMARK  130  A    between atoms: _326  and  _328
REMARK  131  A    between atoms: _328  and  _329
REMARK  132  A    between atoms: _328  and  _331
REMARK  133  A    between atoms: _331  and  _332
REMARK  134  A    between atoms: _335  and  _337
REMARK  135  A    between atoms: _337  and  _338
REMARK  136  A    between atoms: _341  and  _343
REMARK  137  A    between atoms: _343  and  _344
REMARK  138  A    between atoms: _343  and  _346
REMARK  139  A    between atoms: _346  and  _347
REMARK  140  A    between atoms: _350  and  _352
REMARK  141  A    between atoms: _352  and  _353
REMARK  142  A    between atoms: _352  and  _355
REMARK  143  A    between atoms: _355  and  _356
REMARK  144  A    between atoms: _361  and  _362
REMARK  145  A    between atoms: _364  and  _366
REMARK  146  A    between atoms: _366  and  _367
REMARK  147  A    between atoms: _366  and  _369
REMARK  148  A    between atoms: _369  and  _370
REMARK  149  A    between atoms: _375  and  _376
REMARK  150  A    between atoms: _378  and  _380
REMARK  151  A    between atoms: _380  and  _381
REMARK  152  A    between atoms: _380  and  _383
REMARK  153  A    between atoms: _383  and  _384
REMARK  154  A    between atoms: _387  and  _389
REMARK  155  A    between atoms: _389  and  _390
REMARK  156  A    between atoms: _389  and  _392
REMARK  157  A    between atoms: _392  and  _393
REMARK  158  A    between atoms: _393  and  _394
REMARK  159  A    between atoms: _394  and  _395
REMARK  160  A    between atoms: _395  and  _396
REMARK  161  A    between atoms: _400  and  _402
REMARK  162  A    between atoms: _402  and  _403
REMARK  163  A    between atoms: _402  and  _405
REMARK  164  A    between atoms: _405  and  _406
REMARK  165  A    between atoms: _409  and  _411
REMARK  166  A    between atoms: _411  and  _412
REMARK  167  A    between atoms: _411  and  _414
REMARK  168  A    between atoms: _417  and  _419
REMARK  169  A    between atoms: _419  and  _420
REMARK  170  A    between atoms: _419  and  _422
REMARK  171  A    between atoms: _422  and  _423
REMARK  172  A    between atoms: _426  and  _428
REMARK  173  A    between atoms: _428  and  _429
REMARK  174  A    between atoms: _428  and  _431
REMARK  175  A    between atoms: _431  and  _432
REMARK  176  A    between atoms: _434  and  _436
REMARK  177  A    between atoms: _436  and  _437
REMARK  178  A    between atoms: _439  and  _441
REMARK  179  A    between atoms: _441  and  _442
REMARK  180  A    between atoms: _441  and  _444
REMARK  181  A    between atoms: _444  and  _445
REMARK  182  A    between atoms: _448  and  _450
REMARK  183  A    between atoms: _450  and  _451
REMARK  184  A    between atoms: _450  and  _453
REMARK  185  A    between atoms: _453  and  _454
REMARK  186  A    between atoms: _457  and  _459
REMARK  187  A    between atoms: _459  and  _460
REMARK  188  A    between atoms: _459  and  _462
REMARK  189  A    between atoms: _462  and  _463
REMARK  190  A    between atoms: _468  and  _470
REMARK  191  A    between atoms: _470  and  _471
REMARK  192  A    between atoms: _470  and  _473
REMARK  193  A    between atoms: _473  and  _474
REMARK  194  A    between atoms: _474  and  _475
REMARK  195  A    between atoms: _475  and  _476
REMARK  196  A    between atoms: _485  and  _487
REMARK  197  A    between atoms: _487  and  _488
REMARK  198  A    between atoms: _487  and  _490
REMARK  199  A    between atoms: _490  and  _491
REMARK  200  A    between atoms: _493  and  _495
REMARK  201  A    between atoms: _495  and  _496
REMARK  202  A    between atoms: _495  and  _498
REMARK  203  A    between atoms: _498  and  _499
REMARK  204  A    between atoms: _499  and  _500
REMARK  205  A    between atoms: _505  and  _507
REMARK  206  A    between atoms: _507  and  _508
REMARK  207  A    between atoms: _507  and  _510
REMARK  208  A    between atoms: _510  and  _511
REMARK  209  A    between atoms: _513  and  _515
REMARK  210  A    between atoms: _515  and  _516
REMARK  211  A    between atoms: _515  and  _518
REMARK  212  A    between atoms: _518  and  _519
REMARK  213  A    between atoms: _521  and  _523
REMARK  214  A    between atoms: _523  and  _524
REMARK  215  A    between atoms: _523  and  _526
REMARK  216  A    between atoms: _526  and  _527
REMARK  217  A    between atoms: _530  and  _532
REMARK  218  A    between atoms: _532  and  _533
REMARK  219  A    between atoms: _535  and  _537
REMARK  220  A    between atoms: _537  and  _538
REMARK  221  A    between atoms: _537  and  _540
REMARK  222  A    between atoms: _540  and  _541
REMARK  223  A    between atoms: _544  and  _546
REMARK  224  A    between atoms: _546  and  _547
REMARK  225  A    between atoms: _546  and  _549
REMARK  226  A    between atoms: _552  and  _554
REMARK  227  A    between atoms: _554  and  _555
REMARK  228  A    between atoms: _554  and  _557
REMARK  229  A    between atoms: _557  and  _558
REMARK  230  A    between atoms: _558  and  _559
REMARK                            x       y       z     vdW  Elec       q    Type
REMARK                         _______ _______ _______ _____ _____    ______ ____
ROOT
ATOM      1  CA  SER A   1       6.024   4.679  36.756  0.00  0.00    +0.163 C 
ENDROOT
BRANCH   1   2
ATOM      2  N   SER A   1       6.377   3.614  35.809  0.00  0.00    -0.237 NA
ATOM      3  H   SER A   1       5.636   3.245  35.180  0.00  0.00    +0.142 HD
ENDBRANCH   1   2
BRANCH   1   4
ATOM      4  C   SER A   1       5.921   4.188  38.201  0.00  0.00    +0.227 C 
ATOM      5  O   SER A   1       6.017   4.980  39.143  0.00  0.00    -0.287 OA
ENDBRANCH   1   4
BRANCH   1   6
ATOM      6  CB  SER A   1       4.706   5.335  36.340  0.00  0.00    +0.162 C 
BRANCH   6   7
ATOM      7  OG  SER A   1       3.616   4.435  36.480  0.00  0.00    -0.380 OA
ATOM      8  H   SER A   1       3.769   3.642  35.907  0.00  0.00    +0.211 HD
ENDBRANCH   6   7
ENDBRANCH   1   6
TORSDOF 4
REMARK  Name = ../refined-set-2016/4fsl/4fsl_pocket.pdb
REMARK  230 active torsions:
REMARK  status: ('A' for Active; 'I' for Inactive)
REMARK    1  A    between atoms: _1  and  _3
REMARK    2  A    between atoms: _3  and  _4
REMARK    3  A    between atoms: _3  and  _6
REMARK    4  A    between atoms: _6  and  _7
REMARK    5  A    between atoms: _9  and  _11
REMARK    6  A    between atoms: _11  and  _12
REMARK    7  A    between atoms: _14  and  _16
REMARK    8  A    between atoms: _16  and  _17
REMARK    9  A    between atoms: _16  and  _19
REMARK   10  A    between atoms: _19  and  _20
REMARK   11  A    between atoms: _20  and  _21
REMARK   12  A    between atoms: _26  and  _28
REMARK   13  A    between atoms: _28  and  _29
REMARK   14  A    between atoms: _31  and  _33
REMARK   15  A    between atoms: _33  and  _34
REMARK   16  A    between atoms: _33  and  _36
REMARK   17  A    between atoms: _36  and  _37
REMARK   18  A    between atoms: _42  and  _43
REMARK   19  A    between atoms: _45  and  _47
REMARK   20  A    between atoms: _47  and  _48
REMARK   21  A    between atoms: _47  and  _50
REMARK   22  A    between atoms: _50  and  _51
REMARK   23  A    between atoms: _54  and  _56
REMARK   24  A    between atoms: _56  and  _57
REMARK   25  A    between atoms: _56  and  _59
REMARK   26  A    between atoms: _62  and  _64
REMARK   27  A    between atoms: _64  and  _65
REMARK   28  A    between atoms: _64  and  _67
REMARK   29  A    between atoms: _67  and  _68
REMARK   30  A    between atoms: _71  and  _73
REMARK   31  A    between atoms: _73  and  _74
REMARK   32  A    between atoms: _73  and  _76
REMARK   33  A    between atoms: _76  and  _77
REMARK   34  A    between atoms: _80  and  _82
REMARK   35  A    between atoms: _82  and  _83
REMARK   36  A    between atoms: _85  and  _87
REMARK   37  A    between atoms: _87  and  _88
REMARK   38  A    between atoms: _87  and  _90
REMARK   39  A    between atoms: _90  and  _91
REMARK   40  A    between atoms: _93  and  _95
REMARK   41  A    between atoms: _95  and  _96
REMARK   42  A    between atoms: _95  and  _98
REMARK   43  A    between atoms: _98  and  _99
REMARK   44  A    between atoms: _101  and  _103
REMARK   45  A    between atoms: _103  and  _104
REMARK   46  A    between atoms: _103  and  _106
REMARK   47  A    between atoms: _106  and  _107
REMARK   48  A    between atoms: _112  and  _114
REMARK   49  A    between atoms: _114  and  _115
REMARK   50  A    between atoms: _114  and  _117
REMARK   51  A    between atoms: _117  and  _118
REMARK   52  A    between atoms: _124  and  _126
REMARK   53  A    between atoms: _126  and  _127
REMARK   54  A    between atoms: _126  and  _129
REMARK   55  A    between atoms: _133  and  _134
REMARK   56  A    between atoms: _139  and  _141
REMARK   57  A    between atoms: _141  and  _142
REMARK   58  A    between atoms: _141  and  _144
REMARK   59  A    between atoms: _144  and  _145
REMARK   60  A    between atoms: _150  and  _151
REMARK   61  A    between atoms: _153  and  _155
REMARK   62  A    between atoms: _155  and  _156
REMARK   63  A    between atoms: _155  and  _158
REMARK   64  A    between atoms: _158  and  _159
REMARK   65  A    between atoms: _162  and  _164
REMARK   66  A    between atoms: _164  and  _165
REMARK   67  A    between atoms: _164  and  _167
REMARK   68  A    between atoms: _167  and  _168
REMARK   69  A    between atoms: _168  and  _169
REMARK   70  A    between atoms: _174  and  _176
REMARK   71  A    between atoms: _176  and  _177
REMARK   72  A    between atoms: _179  and  _181
REMARK   73  A    between atoms: _181  and  _182
REMARK   74  A    between atoms: _181  and  _184
REMARK   75  A    between atoms: _184  and  _185
REMARK   76  A    between atoms: _185  and  _186
REMARK   77  A    between atoms: _186  and  _187
REMARK   78  A    between atoms: _187  and  _188
REMARK   79  A    between atoms: _192  and  _194
REMARK   80  A    between atoms: _194  and  _195
REMARK   81  A    between atoms: _194  and  _197
REMARK   82  A    between atoms: _197  and  _198
REMARK   83  A    between atoms: _208  and  _210
REMARK   84  A    between atoms: _210  and  _211
REMARK   85  A    between atoms: _210  and  _213
REMARK   86  A    between atoms: _213  and  _214
REMARK   87  A    between atoms: _217  and  _219
REMARK   88  A    between atoms: _219  and  _220
REMARK   89  A    between atoms: _219  and  _222
REMARK   90  A    between atoms: _222  and  _223
REMARK   91  A    between atoms: _223  and  _224
REMARK   92  A    between atoms: _224  and  _225
REMARK   93  A    between atoms: _225  and  _226
REMARK   94  A    between atoms: _230  and  _232
REMARK   95  A    between atoms: _232  and  _233
REMARK   96  A    between atoms: _232  and  _235
REMARK   97  A    between atoms: _235  and  _236
REMARK   98  A    between atoms: _242  and  _244
REMARK   99  A    between atoms: _244  and  _245
REMARK  100  A    between atoms: _244  and  _247
REMARK  101  A    between atoms: _247  and  _248
REMARK  102  A    between atoms: _254  and  _256
REMARK  103  A    between atoms: _256  and  _257
REMARK  104  A    between atoms: _256  and  _259
REMARK  105  A    between atoms: _259  and  _260
REMARK  106  A    between atoms: _263  and  _265
REMARK  107  A    between atoms: _265  and  _266
REMARK  108  A    between atoms: _265  and  _268
REMARK  109  A    between atoms: _268  and  _269
REMARK  110  A    between atoms: _274  and  _276
REMARK  111  A    between atoms: _276  and  _277
REMARK  112  A    between atoms: _276  and  _279
REMARK  113  A    between atoms: _279  and  _280
REMARK  114  A    between atoms: _282  and  _284
REMARK  115  A    between atoms: _284  and  _285
REMARK  116  A    between atoms: _284  and  _287
REMARK  117  A    between atoms: _287  and  _288
REMARK  118  A    between atoms: _298  and  _300
REMARK  119  A    between atoms: _300  and  _301
REMARK  120  A    between atoms: _303  and  _305
REMARK  121  A    between atoms: _305  and  _306
REMARK  122  A    between atoms: _305  and  _308
REMARK  123  A    between atoms: _308  and  _309
REMARK  124  A    between atoms: _312  and  _314
REMARK  125  A    between atoms: _314  and  _315
REMARK  126  A    between atoms: _314  and  _317
REMARK  127  A    between atoms: _317  and  _318
REMARK  128  A    between atoms: _321  and  _323
REMARK  129  A    between atoms: _323  and  _324
REMARK  130  A    between atoms: _326  and  _328
REMARK  131  A    between atoms: _328  and  _329
REMARK  132  A    between atoms: _328  and  _331
REMARK  133  A    between atoms: _331  and  _332
REMARK  134  A    between atoms: _335  and  _337
REMARK  135  A    between atoms: _337  and  _338
REMARK  136  A    between atoms: _341  and  _343
REMARK  137  A    between atoms: _343  and  _344
REMARK  138  A    between atoms: _343  and  _346
REMARK  139  A    between atoms: _346  and  _347
REMARK  140  A    between atoms: _350  and  _352
REMARK  141  A    between atoms: _352  and  _353
REMARK  142  A    between atoms: _352  and  _355
REMARK  143  A    between atoms: _355  and  _356
REMARK  144  A    between atoms: _361  and  _362
REMARK  145  A    between atoms: _364  and  _366
REMARK  146  A    between atoms: _366  and  _367
REMARK  147  A    between atoms: _366  and  _369
REMARK  148  A    between atoms: _369  and  _370
REMARK  149  A    between atoms: _375  and  _376
REMARK  150  A    between atoms: _378  and  _380
REMARK  151  A    between atoms: _380  and  _381
REMARK  152  A    between atoms: _380  and  _383
REMARK  153  A    between atoms: _383  and  _384
REMARK  154  A    between atoms: _387  and  _389
REMARK  155  A    between atoms: _389  and  _390
REMARK  156  A    between atoms: _389  and  _392
REMARK  157  A    between atoms: _392  and  _393
REMARK  158  A    between atoms: _393  and  _394
REMARK  159  A    between atoms: _394  and  _395
REMARK  160  A    between atoms: _395  and  _396
REMARK  161  A    between atoms: _400  and  _402
REMARK  162  A    between atoms: _402  and  _403
REMARK  163  A    between atoms: _402  and  _405
REMARK  164  A    between atoms: _405  and  _406
REMARK  165  A    between atoms: _409  and  _411
REMARK  166  A    between atoms: _411  and  _412
REMARK  167  A    between atoms: _411  and  _414
REMARK  168  A    between atoms: _417  and  _419
REMARK  169  A    between atoms: _419  and  _420
REMARK  170  A    between atoms: _419  and  _422
REMARK  171  A    between atoms: _422  and  _423
REMARK  172  A    between atoms: _426  and  _428
REMARK  173  A    between atoms: _428  and  _429
REMARK  174  A    between atoms: _428  and  _431
REMARK  175  A    between atoms: _431  and  _432
REMARK  176  A    between atoms: _434  and  _436
REMARK  177  A    between atoms: _436  and  _437
REMARK  178  A    between atoms: _439  and  _441
REMARK  179  A    between atoms: _441  and  _442
REMARK  180  A    between atoms: _441  and  _444
REMARK  181  A    between atoms: _444  and  _445
REMARK  182  A    between atoms: _448  and  _450
REMARK  183  A    between atoms: _450  and  _451
REMARK  184  A    between atoms: _450  and  _453
REMARK  185  A    between atoms: _453  and  _454
REMARK  186  A    between atoms: _457  and  _459
REMARK  187  A    between atoms: _459  and  _460
REMARK  188  A    between atoms: _459  and  _462
REMARK  189  A    between atoms: _462  and  _463
REMARK  190  A    between atoms: _468  and  _470
REMARK  191  A    between atoms: _470  and  _471
REMARK  192  A    between atoms: _470  and  _473
REMARK  193  A    between atoms: _473  and  _474
REMARK  194  A    between atoms: _474  and  _475
REMARK  195  A    between atoms: _475  and  _476
REMARK  196  A    between atoms: _485  and  _487
REMARK  197  A    between atoms: _487  and  _488
REMARK  198  A    between atoms: _487  and  _490
REMARK  199  A    between atoms: _490  and  _491
REMARK  200  A    between atoms: _493  and  _495
REMARK  201  A    between atoms: _495  and  _496
REMARK  202  A    between atoms: _495  and  _498
REMARK  203  A    between atoms: _498  and  _499
REMARK  204  A    between atoms: _499  and  _500
REMARK  205  A    between atoms: _505  and  _507
REMARK  206  A    between atoms: _507  and  _508
REMARK  207  A    between atoms: _507  and  _510
REMARK  208  A    between atoms: _510  and  _511
REMARK  209  A    between atoms: _513  and  _515
REMARK  210  A    between atoms: _515  and  _516
REMARK  211  A    between atoms: _515  and  _518
REMARK  212  A    between atoms: _518  and  _519
REMARK  213  A    between atoms: _521  and  _523
REMARK  214  A    between atoms: _523  and  _524
REMARK  215  A    between atoms: _523  and  _526
REMARK  216  A    between atoms: _526  and  _527
REMARK  217  A    between atoms: _530  and  _532
REMARK  218  A    between atoms: _532  and  _533
REMARK  219  A    between atoms: _535  and  _537
REMARK  220  A    between atoms: _537  and  _538
REMARK  221  A    between atoms: _537  and  _540
REMARK  222  A    between atoms: _540  and  _541
REMARK  223  A    between atoms: _544  and  _546
REMARK  224  A    between atoms: _546  and  _547
REMARK  225  A    between atoms: _546  and  _549
REMARK  226  A    between atoms: _552  and  _554
REMARK  227  A    between atoms: _554  and  _555
REMARK  228  A    between atoms: _554  and  _557
REMARK  229  A    between atoms: _557  and  _558
REMARK  230  A    between atoms: _558  and  _559
REMARK                            x       y       z     vdW  Elec       q    Type
REMARK                         _______ _______ _______ _____ _____    ______ ____
ROOT
ATOM      1  CG  TRP A   1       1.833   5.713  39.591  0.00  0.00    -0.002 A 
ATOM      2  CD1 TRP A   1       2.877   6.468  39.139  0.00  0.00    +0.068 A 
ATOM      3  NE1 TRP A   1       2.531   7.107  37.975  0.00  0.00    -0.352 N 
ATOM      4  CE2 TRP A   1       1.241   6.776  37.652  0.00  0.00    +0.056 A 
ATOM      5  CZ2 TRP A   1       0.454   7.171  36.571  0.00  0.00    +0.017 A 
ATOM      6  CH2 TRP A   1      -0.821   6.676  36.501  0.00  0.00    +0.001 A 
ATOM      7  CZ3 TRP A   1      -1.325   5.803  37.480  0.00  0.00    +0.000 A 
ATOM      8  CE3 TRP A   1      -0.543   5.408  38.557  0.00  0.00    +0.001 A 
ATOM      9  HE1 TRP A   1       3.148   7.740  37.427  0.00  0.00    +0.166 HD
ATOM     10  CD2 TRP A   1       0.767   5.900  38.653  0.00  0.00    +0.013 A 
ENDROOT
BRANCH   1  11
ATOM     11  CB  TRP A   1       1.803   4.877  40.830  0.00  0.00    +0.053 C 
BRANCH  11  12
ATOM     12  CA  TRP A   1       2.155   3.394  40.635  0.00  0.00    +0.137 C 
BRANCH  12  13
ATOM     13  N   TRP A   1       3.432   3.209  39.948  0.00  0.00    -0.239 NA
ATOM     14  H   TRP A   1       3.549   3.562  38.977  0.00  0.00    +0.142 HD
ENDBRANCH  12  13
BRANCH  12  15
ATOM     15  C   TRP A   1       1.028   2.619  39.953  0.00  0.00    +0.224 C 
ATOM     16  O   TRP A   1       1.059   2.393  38.741  0.00  0.00    -0.287 OA
ENDBRANCH  12  15
ENDBRANCH  11  12
ENDBRANCH   1  11
TORSDOF 4
REMARK  Name = ../refined-set-2016/4fsl/4fsl_pocket.pdb
REMARK  230 active torsions:
REMARK  status: ('A' for Active; 'I' for Inactive)
REMARK    1  A    between atoms: _1  and  _3
REMARK    2  A    between atoms: _3  and  _4
REMARK    3  A    between atoms: _3  and  _6
REMARK    4  A    between atoms: _6  and  _7
REMARK    5  A    between atoms: _9  and  _11
REMARK    6  A    between atoms: _11  and  _12
REMARK    7  A    between atoms: _14  and  _16
REMARK    8  A    between atoms: _16  and  _17
REMARK    9  A    between atoms: _16  and  _19
REMARK   10  A    between atoms: _19  and  _20
REMARK   11  A    between atoms: _20  and  _21
REMARK   12  A    between atoms: _26  and  _28
REMARK   13  A    between atoms: _28  and  _29
REMARK   14  A    between atoms: _31  and  _33
REMARK   15  A    between atoms: _33  and  _34
REMARK   16  A    between atoms: _33  and  _36
REMARK   17  A    between atoms: _36  and  _37
REMARK   18  A    between atoms: _42  and  _43
REMARK   19  A    between atoms: _45  and  _47
REMARK   20  A    between atoms: _47  and  _48
REMARK   21  A    between atoms: _47  and  _50
REMARK   22  A    between atoms: _50  and  _51
REMARK   23  A    between atoms: _54  and  _56
REMARK   24  A    between atoms: _56  and  _57
REMARK   25  A    between atoms: _56  and  _59
REMARK   26  A    between atoms: _62  and  _64
REMARK   27  A    between atoms: _64  and  _65
REMARK   28  A    between atoms: _64  and  _67
REMARK   29  A    between atoms: _67  and  _68
REMARK   30  A    between atoms: _71  and  _73
REMARK   31  A    between atoms: _73  and  _74
REMARK   32  A    between atoms: _73  and  _76
REMARK   33  A    between atoms: _76  and  _77
REMARK   34  A    between atoms: _80  and  _82
REMARK   35  A    between atoms: _82  and  _83
REMARK   36  A    between atoms: _85  and  _87
REMARK   37  A    between atoms: _87  and  _88
REMARK   38  A    between atoms: _87  and  _90
REMARK   39  A    between atoms: _90  and  _91
REMARK   40  A    between atoms: _93  and  _95
REMARK   41  A    between atoms: _95  and  _96
REMARK   42  A    between atoms: _95  and  _98
REMARK   43  A    between atoms: _98  and  _99
REMARK   44  A    between atoms: _101  and  _103
REMARK   45  A    between atoms: _103  and  _104
REMARK   46  A    between atoms: _103  and  _106
REMARK   47  A    between atoms: _106  and  _107
REMARK   48  A    between atoms: _112  and  _114
REMARK   49  A    between atoms: _114  and  _115
REMARK   50  A    between atoms: _114  and  _117
REMARK   51  A    between atoms: _117  and  _118
REMARK   52  A    between atoms: _124  and  _126
REMARK   53  A    between atoms: _126  and  _127
REMARK   54  A    between atoms: _126  and  _129
REMARK   55  A    between atoms: _133  and  _134
REMARK   56  A    between atoms: _139  and  _141
REMARK   57  A    between atoms: _141  and  _142
REMARK   58  A    between atoms: _141  and  _144
REMARK   59  A    between atoms: _144  and  _145
REMARK   60  A    between atoms: _150  and  _151
REMARK   61  A    between atoms: _153  and  _155
REMARK   62  A    between atoms: _155  and  _156
REMARK   63  A    between atoms: _155  and  _158
REMARK   64  A    between atoms: _158  and  _159
REMARK   65  A    between atoms: _162  and  _164
REMARK   66  A    between atoms: _164  and  _165
REMARK   67  A    between atoms: _164  and  _167
REMARK   68  A    between atoms: _167  and  _168
REMARK   69  A    between atoms: _168  and  _169
REMARK   70  A    between atoms: _174  and  _176
REMARK   71  A    between atoms: _176  and  _177
REMARK   72  A    between atoms: _179  and  _181
REMARK   73  A    between atoms: _181  and  _182
REMARK   74  A    between atoms: _181  and  _184
REMARK   75  A    between atoms: _184  and  _185
REMARK   76  A    between atoms: _185  and  _186
REMARK   77  A    between atoms: _186  and  _187
REMARK   78  A    between atoms: _187  and  _188
REMARK   79  A    between atoms: _192  and  _194
REMARK   80  A    between atoms: _194  and  _195
REMARK   81  A    between atoms: _194  and  _197
REMARK   82  A    between atoms: _197  and  _198
REMARK   83  A    between atoms: _208  and  _210
REMARK   84  A    between atoms: _210  and  _211
REMARK   85  A    between atoms: _210  and  _213
REMARK   86  A    between atoms: _213  and  _214
REMARK   87  A    between atoms: _217  and  _219
REMARK   88  A    between atoms: _219  and  _220
REMARK   89  A    between atoms: _219  and  _222
REMARK   90  A    between atoms: _222  and  _223
REMARK   91  A    between atoms: _223  and  _224
REMARK   92  A    between atoms: _224  and  _225
REMARK   93  A    between atoms: _225  and  _226
REMARK   94  A    between atoms: _230  and  _232
REMARK   95  A    between atoms: _232  and  _233
REMARK   96  A    between atoms: _232  and  _235
REMARK   97  A    between atoms: _235  and  _236
REMARK   98  A    between atoms: _242  and  _244
REMARK   99  A    between atoms: _244  and  _245
REMARK  100  A    between atoms: _244  and  _247
REMARK  101  A    between atoms: _247  and  _248
REMARK  102  A    between atoms: _254  and  _256
REMARK  103  A    between atoms: _256  and  _257
REMARK  104  A    between atoms: _256  and  _259
REMARK  105  A    between atoms: _259  and  _260
REMARK  106  A    between atoms: _263  and  _265
REMARK  107  A    between atoms: _265  and  _266
REMARK  108  A    between atoms: _265  and  _268
REMARK  109  A    between atoms: _268  and  _269
REMARK  110  A    between atoms: _274  and  _276
REMARK  111  A    between atoms: _276  and  _277
REMARK  112  A    between atoms: _276  and  _279
REMARK  113  A    between atoms: _279  and  _280
REMARK  114  A    between atoms: _282  and  _284
REMARK  115  A    between atoms: _284  and  _285
REMARK  116  A    between atoms: _284  and  _287
REMARK  117  A    between atoms: _287  and  _288
REMARK  118  A    between atoms: _298  and  _300
REMARK  119  A    between atoms: _300  and  _301
REMARK  120  A    between atoms: _303  and  _305
REMARK  121  A    between atoms: _305  and  _306
REMARK  122  A    between atoms: _305  and  _308
REMARK  123  A    between atoms: _308  and  _309
REMARK  124  A    between atoms: _312  and  _314
REMARK  125  A    between atoms: _314  and  _315
REMARK  126  A    between atoms: _314  and  _317
REMARK  127  A    between atoms: _317  and  _318
REMARK  128  A    between atoms: _321  and  _323
REMARK  129  A    between atoms: _323  and  _324
REMARK  130  A    between atoms: _326  and  _328
REMARK  131  A    between atoms: _328  and  _329
REMARK  132  A    between atoms: _328  and  _331
REMARK  133  A    between atoms: _331  and  _332
REMARK  134  A    between atoms: _335  and  _337
REMARK  135  A    between atoms: _337  and  _338
REMARK  136  A    between atoms: _341  and  _343
REMARK  137  A    between atoms: _343  and  _344
REMARK  138  A    between atoms: _343  and  _346
REMARK  139  A    between atoms: _346  and  _347
REMARK  140  A    between atoms: _350  and  _352
REMARK  141  A    between atoms: _352  and  _353
REMARK  142  A    between atoms: _352  and  _355
REMARK  143  A    between atoms: _355  and  _356
REMARK  144  A    between atoms: _361  and  _362
REMARK  145  A    between atoms: _364  and  _366
REMARK  146  A    between atoms: _366  and  _367
REMARK  147  A    between atoms: _366  and  _369
REMARK  148  A    between atoms: _369  and  _370
REMARK  149  A    between atoms: _375  and  _376
REMARK  150  A    between atoms: _378  and  _380
REMARK  151  A    between atoms: _380  and  _381
REMARK  152  A    between atoms: _380  and  _383
REMARK  153  A    between atoms: _383  and  _384
REMARK  154  A    between atoms: _387  and  _389
REMARK  155  A    between atoms: _389  and  _390
REMARK  156  A    between atoms: _389  and  _392
REMARK  157  A    between atoms: _392  and  _393
REMARK  158  A    between atoms: _393  and  _394
REMARK  159  A    between atoms: _394  and  _395
REMARK  160  A    between atoms: _395  and  _396
REMARK  161  A    between atoms: _400  and  _402
REMARK  162  A    between atoms: _402  and  _403
REMARK  163  A    between atoms: _402  and  _405
REMARK  164  A    between atoms: _405  and  _406
REMARK  165  A    between atoms: _409  and  _411
REMARK  166  A    between atoms: _411  and  _412
REMARK  167  A    between atoms: _411  and  _414
REMARK  168  A    between atoms: _417  and  _419
REMARK  169  A    between atoms: _419  and  _420
REMARK  170  A    between atoms: _419  and  _422
REMARK  171  A    between atoms: _422  and  _423
REMARK  172  A    between atoms: _426  and  _428
REMARK  173  A    between atoms: _428  and  _429
REMARK  174  A    between atoms: _428  and  _431
REMARK  175  A    between atoms: _431  and  _432
REMARK  176  A    between atoms: _434  and  _436
REMARK  177  A    between atoms: _436  and  _437
REMARK  178  A    between atoms: _439  and  _441
REMARK  179  A    between atoms: _441  and  _442
REMARK  180  A    between atoms: _441  and  _444
REMARK  181  A    between atoms: _444  and  _445
REMARK  182  A    between atoms: _448  and  _450
REMARK  183  A    between atoms: _450  and  _451
REMARK  184  A    between atoms: _450  and  _453
REMARK  185  A    between atoms: _453  and  _454
REMARK  186  A    between atoms: _457  and  _459
REMARK  187  A    between atoms: _459  and  _460
REMARK  188  A    between atoms: _459  and  _462
REMARK  189  A    between atoms: _462  and  _463
REMARK  190  A    between atoms: _468  and  _470
REMARK  191  A    between atoms: _470  and  _471
REMARK  192  A    between atoms: _470  and  _473
REMARK  193  A    between atoms: _473  and  _474
REMARK  194  A    between atoms: _474  and  _475
REMARK  195  A    between atoms: _475  and  _476
REMARK  196  A    between atoms: _485  and  _487
REMARK  197  A    between atoms: _487  and  _488
REMARK  198  A    between atoms: _487  and  _490
REMARK  199  A    between atoms: _490  and  _491
REMARK  200  A    between atoms: _493  and  _495
REMARK  201  A    between atoms: _495  and  _496
REMARK  202  A    between atoms: _495  and  _498
REMARK  203  A    between atoms: _498  and  _499
REMARK  204  A    between atoms: _499  and  _500
REMARK  205  A    between atoms: _505  and  _507
REMARK  206  A    between atoms: _507  and  _508
REMARK  207  A    between atoms: _507  and  _510
REMARK  208  A    between atoms: _510  and  _511
REMARK  209  A    between atoms: _513  and  _515
REMARK  210  A    between atoms: _515  and  _516
REMARK  211  A    between atoms: _515  and  _518
REMARK  212  A    between atoms: _518  and  _519
REMARK  213  A    between atoms: _521  and  _523
REMARK  214  A    between atoms: _523  and  _524
REMARK  215  A    between atoms: _523  and  _526
REMARK  216  A    between atoms: _526  and  _527
REMARK  217  A    between atoms: _530  and  _532
REMARK  218  A    between atoms: _532  and  _533
REMARK  219  A    between atoms: _535  and  _537
REMARK  220  A    between atoms: _537  and  _538
REMARK  221  A    between atoms: _537  and  _540
REMARK  222  A    between atoms: _540  and  _541
REMARK  223  A    between atoms: _544  and  _546
REMARK  224  A    between atoms: _546  and  _547
REMARK  225  A    between atoms: _546  and  _549
REMARK  226  A    between atoms: _552  and  _554
REMARK  227  A    between atoms: _554  and  _555
REMARK  228  A    between atoms: _554  and  _557
REMARK  229  A    between atoms: _557  and  _558
REMARK  230  A    between atoms: _558  and  _559
REMARK                            x       y       z     vdW  Elec       q    Type
REMARK                         _______ _______ _______ _____ _____    ______ ____
ROOT
ATOM      1  C   LEU A   3      -5.948  11.153  43.863  0.00  0.00    +0.241 C 
ATOM      2  O   LEU A   3      -5.151  12.096  43.958  0.00  0.00    -0.273 OA
ATOM      3  N   GLY A   4      -7.185  11.280  43.392  0.00  0.00    -0.295 N 
ATOM      4  H   GLY A   4      -7.782  10.432  43.317  0.00  0.00    +0.150 HD
ENDROOT
BRANCH   3   5
ATOM      5  CA  GLY A   4      -7.734  12.563  42.977  0.00  0.00    +0.176 C 
BRANCH   5   6
ATOM      6  C   GLY A   4      -8.049  13.406  44.192  0.00  0.00    +0.243 C 
ATOM      7  O   GLY A   4      -8.944  13.075  44.973  0.00  0.00    -0.273 OA
ATOM      8  N   LEU A   5      -7.300  14.491  44.349  0.00  0.00    -0.297 N 
ATOM      9  H   LEU A   5      -6.641  14.765  43.593  0.00  0.00    +0.150 HD
BRANCH   8  10
ATOM     10  CA  LEU A   5      -7.378  15.310  45.557  0.00  0.00    +0.149 C 
BRANCH  10  11
ATOM     11  C   LEU A   5      -8.272  16.540  45.406  0.00  0.00    +0.241 C 
ATOM     12  O   LEU A   5      -8.486  17.274  46.372  0.00  0.00    -0.273 OA
ATOM     13  N   ALA A   6      -8.801  16.753  44.204  0.00  0.00    -0.298 N 
ATOM     14  H   ALA A   6      -8.566  16.108  43.423  0.00  0.00    +0.150 HD
BRANCH  13  15
ATOM     15  CA  ALA A   6      -9.705  17.874  43.958  0.00  0.00    +0.137 C 
ATOM     16  CB  ALA A   6      -9.708  18.252  42.480  0.00  0.00    +0.030 C 
BRANCH  15  17
ATOM     17  C   ALA A   6     -11.130  17.607  44.481  0.00  0.00    +0.227 C 
ATOM     18  O   ALA A   6     -11.404  16.554  45.074  0.00  0.00    -0.286 OA
ENDBRANCH  15  17
ENDBRANCH  13  15
ENDBRANCH  10  11
BRANCH  10  19
ATOM     19  CB  LEU A   5      -5.972  15.697  46.041  0.00  0.00    +0.029 C 
BRANCH  19  20
ATOM     20  CG  LEU A   5      -5.169  14.590  46.741  0.00  0.00    +0.002 C 
ATOM     21  CD2 LEU A   5      -5.686  14.329  48.146  0.00  0.00    +0.000 C 
ATOM     22  CD1 LEU A   5      -3.693  14.927  46.784  0.00  0.00    +0.000 C 
ENDBRANCH  19  20
ENDBRANCH  10  19
ENDBRANCH   8  10
ENDBRANCH   5   6
ENDBRANCH   3   5
BRANCH   1  23
ATOM     23  CA  LEU A   3      -5.549   9.740  44.273  0.00  0.00    +0.149 C 
BRANCH  23  25
ATOM     24  C   ILE A   2      -5.466   8.054  42.496  0.00  0.00    +0.241 C 
ATOM     25  N   LEU A   3      -4.900   9.067  43.152  0.00  0.00    -0.297 N 
ATOM     26  H   LEU A   3      -3.958   9.391  42.853  0.00  0.00    +0.150 HD
ATOM     27  O   ILE A   2      -6.523   7.525  42.844  0.00  0.00    -0.273 OA
BRANCH  24  28
ATOM     28  CA  ILE A   2      -4.695   7.536  41.278  0.00  0.00    +0.148 C 
BRANCH  28  30
ATOM     29  C   GLY A   1      -3.568   5.358  41.188  0.00  0.00    +0.240 C 
ATOM     30  N   ILE A   2      -4.689   6.074  41.235  0.00  0.00    -0.297 N 
ATOM     31  H   ILE A   2      -5.600   5.572  41.241  0.00  0.00    +0.150 HD
ATOM     32  O   GLY A   1      -2.445   5.859  41.205  0.00  0.00    -0.274 OA
BRANCH  29  33
ATOM     33  CA  GLY A   1      -3.744   3.852  41.116  0.00  0.00    +0.169 C 
BRANCH  33  34
ATOM     34  N   GLY A   1      -2.481   3.141  40.954  0.00  0.00    -0.236 NA
ATOM     35  H   GLY A   1      -1.603   3.599  41.270  0.00  0.00    +0.142 HD
ENDBRANCH  33  34
ENDBRANCH  29  33
ENDBRANCH  28  30
BRANCH  28  36
ATOM     36  CB  ILE A   2      -5.247   8.148  39.953  0.00  0.00    +0.027 C 
ATOM     37  CG2 ILE A   2      -6.706   7.730  39.701  0.00  0.00    +0.002 C 
BRANCH  36  38
ATOM     38  CG1 ILE A   2      -5.097   9.671  39.945  0.00  0.00    +0.002 C 
ATOM     39  CD1 ILE A   2      -5.330  10.301  38.588  0.00  0.00    +0.000 C 
ENDBRANCH  36  38
ENDBRANCH  28  36
ENDBRANCH  24  28
ENDBRANCH  23  25
BRANCH  23  40
ATOM     40  CB  LEU A   3      -4.646   9.774  45.514  0.00  0.00    +0.029 C 
BRANCH  40  41
ATOM     41  CG  LEU A   3      -5.258  10.302  46.822  0.00  0.00    +0.002 C 
ATOM     42  CD2 LEU A   3      -4.212  10.344  47.918  0.00  0.00    +0.000 C 
ATOM     43  CD1 LEU A   3      -6.443   9.449  47.260  0.00  0.00    +0.000 C 
ENDBRANCH  40  41
ENDBRANCH  23  40
ENDBRANCH   1  23
TORSDOF 18
REMARK  Name = ../refined-set-2016/4fsl/4fsl_pocket.pdb
REMARK  230 active torsions:
REMARK  status: ('A' for Active; 'I' for Inactive)
REMARK    1  A    between atoms: _1  and  _3
REMARK    2  A    between atoms: _3  and  _4
REMARK    3  A    between atoms: _3  and  _6
REMARK    4  A    between atoms: _6  and  _7
REMARK    5  A    between atoms: _9  and  _11
REMARK    6  A    between atoms: _11  and  _12
REMARK    7  A    between atoms: _14  and  _16
REMARK    8  A    between atoms: _16  and  _17
REMARK    9  A    between atoms: _16  and  _19
REMARK   10  A    between atoms: _19  and  _20
REMARK   11  A    between atoms: _20  and  _21
REMARK   12  A    between atoms: _26  and  _28
REMARK   13  A    between atoms: _28  and  _29
REMARK   14  A    between atoms: _31  and  _33
REMARK   15  A    between atoms: _33  and  _34
REMARK   16  A    between atoms: _33  and  _36
REMARK   17  A    between atoms: _36  and  _37
REMARK   18  A    between atoms: _42  and  _43
REMARK   19  A    between atoms: _45  and  _47
REMARK   20  A    between atoms: _47  and  _48
REMARK   21  A    between atoms: _47  and  _50
REMARK   22  A    between atoms: _50  and  _51
REMARK   23  A    between atoms: _54  and  _56
REMARK   24  A    between atoms: _56  and  _57
REMARK   25  A    between atoms: _56  and  _59
REMARK   26  A    between atoms: _62  and  _64
REMARK   27  A    between atoms: _64  and  _65
REMARK   28  A    between atoms: _64  and  _67
REMARK   29  A    between atoms: _67  and  _68
REMARK   30  A    between atoms: _71  and  _73
REMARK   31  A    between atoms: _73  and  _74
REMARK   32  A    between atoms: _73  and  _76
REMARK   33  A    between atoms: _76  and  _77
REMARK   34  A    between atoms: _80  and  _82
REMARK   35  A    between atoms: _82  and  _83
REMARK   36  A    between atoms: _85  and  _87
REMARK   37  A    between atoms: _87  and  _88
REMARK   38  A    between atoms: _87  and  _90
REMARK   39  A    between atoms: _90  and  _91
REMARK   40  A    between atoms: _93  and  _95
REMARK   41  A    between atoms: _95  and  _96
REMARK   42  A    between atoms: _95  and  _98
REMARK   43  A    between atoms: _98  and  _99
REMARK   44  A    between atoms: _101  and  _103
REMARK   45  A    between atoms: _103  and  _104
REMARK   46  A    between atoms: _103  and  _106
REMARK   47  A    between atoms: _106  and  _107
REMARK   48  A    between atoms: _112  and  _114
REMARK   49  A    between atoms: _114  and  _115
REMARK   50  A    between atoms: _114  and  _117
REMARK   51  A    between atoms: _117  and  _118
REMARK   52  A    between atoms: _124  and  _126
REMARK   53  A    between atoms: _126  and  _127
REMARK   54  A    between atoms: _126  and  _129
REMARK   55  A    between atoms: _133  and  _134
REMARK   56  A    between atoms: _139  and  _141
REMARK   57  A    between atoms: _141  and  _142
REMARK   58  A    between atoms: _141  and  _144
REMARK   59  A    between atoms: _144  and  _145
REMARK   60  A    between atoms: _150  and  _151
REMARK   61  A    between atoms: _153  and  _155
REMARK   62  A    between atoms: _155  and  _156
REMARK   63  A    between atoms: _155  and  _158
REMARK   64  A    between atoms: _158  and  _159
REMARK   65  A    between atoms: _162  and  _164
REMARK   66  A    between atoms: _164  and  _165
REMARK   67  A    between atoms: _164  and  _167
REMARK   68  A    between atoms: _167  and  _168
REMARK   69  A    between atoms: _168  and  _169
REMARK   70  A    between atoms: _174  and  _176
REMARK   71  A    between atoms: _176  and  _177
REMARK   72  A    between atoms: _179  and  _181
REMARK   73  A    between atoms: _181  and  _182
REMARK   74  A    between atoms: _181  and  _184
REMARK   75  A    between atoms: _184  and  _185
REMARK   76  A    between atoms: _185  and  _186
REMARK   77  A    between atoms: _186  and  _187
REMARK   78  A    between atoms: _187  and  _188
REMARK   79  A    between atoms: _192  and  _194
REMARK   80  A    between atoms: _194  and  _195
REMARK   81  A    between atoms: _194  and  _197
REMARK   82  A    between atoms: _197  and  _198
REMARK   83  A    between atoms: _208  and  _210
REMARK   84  A    between atoms: _210  and  _211
REMARK   85  A    between atoms: _210  and  _213
REMARK   86  A    between atoms: _213  and  _214
REMARK   87  A    between atoms: _217  and  _219
REMARK   88  A    between atoms: _219  and  _220
REMARK   89  A    between atoms: _219  and  _222
REMARK   90  A    between atoms: _222  and  _223
REMARK   91  A    between atoms: _223  and  _224
REMARK   92  A    between atoms: _224  and  _225
REMARK   93  A    between atoms: _225  and  _226
REMARK   94  A    between atoms: _230  and  _232
REMARK   95  A    between atoms: _232  and  _233
REMARK   96  A    between atoms: _232  and  _235
REMARK   97  A    between atoms: _235  and  _236
REMARK   98  A    between atoms: _242  and  _244
REMARK   99  A    between atoms: _244  and  _245
REMARK  100  A    between atoms: _244  and  _247
REMARK  101  A    between atoms: _247  and  _248
REMARK  102  A    between atoms: _254  and  _256
REMARK  103  A    between atoms: _256  and  _257
REMARK  104  A    between atoms: _256  and  _259
REMARK  105  A    between atoms: _259  and  _260
REMARK  106  A    between atoms: _263  and  _265
REMARK  107  A    between atoms: _265  and  _266
REMARK  108  A    between atoms: _265  and  _268
REMARK  109  A    between atoms: _268  and  _269
REMARK  110  A    between atoms: _274  and  _276
REMARK  111  A    between atoms: _276  and  _277
REMARK  112  A    between atoms: _276  and  _279
REMARK  113  A    between atoms: _279  and  _280
REMARK  114  A    between atoms: _282  and  _284
REMARK  115  A    between atoms: _284  and  _285
REMARK  116  A    between atoms: _284  and  _287
REMARK  117  A    between atoms: _287  and  _288
REMARK  118  A    between atoms: _298  and  _300
REMARK  119  A    between atoms: _300  and  _301
REMARK  120  A    between atoms: _303  and  _305
REMARK  121  A    between atoms: _305  and  _306
REMARK  122  A    between atoms: _305  and  _308
REMARK  123  A    between atoms: _308  and  _309
REMARK  124  A    between atoms: _312  and  _314
REMARK  125  A    between atoms: _314  and  _315
REMARK  126  A    between atoms: _314  and  _317
REMARK  127  A    between atoms: _317  and  _318
REMARK  128  A    between atoms: _321  and  _323
REMARK  129  A    between atoms: _323  and  _324
REMARK  130  A    between atoms: _326  and  _328
REMARK  131  A    between atoms: _328  and  _329
REMARK  132  A    between atoms: _328  and  _331
REMARK  133  A    between atoms: _331  and  _332
REMARK  134  A    between atoms: _335  and  _337
REMARK  135  A    between atoms: _337  and  _338
REMARK  136  A    between atoms: _341  and  _343
REMARK  137  A    between atoms: _343  and  _344
REMARK  138  A    between atoms: _343  and  _346
REMARK  139  A    between atoms: _346  and  _347
REMARK  140  A    between atoms: _350  and  _352
REMARK  141  A    between atoms: _352  and  _353
REMARK  142  A    between atoms: _352  and  _355
REMARK  143  A    between atoms: _355  and  _356
REMARK  144  A    between atoms: _361  and  _362
REMARK  145  A    between atoms: _364  and  _366
REMARK  146  A    between atoms: _366  and  _367
REMARK  147  A    between atoms: _366  and  _369
REMARK  148  A    between atoms: _369  and  _370
REMARK  149  A    between atoms: _375  and  _376
REMARK  150  A    between atoms: _378  and  _380
REMARK  151  A    between atoms: _380  and  _381
REMARK  152  A    between atoms: _380  and  _383
REMARK  153  A    between atoms: _383  and  _384
REMARK  154  A    between atoms: _387  and  _389
REMARK  155  A    between atoms: _389  and  _390
REMARK  156  A    between atoms: _389  and  _392
REMARK  157  A    between atoms: _392  and  _393
REMARK  158  A    between atoms: _393  and  _394
REMARK  159  A    between atoms: _394  and  _395
REMARK  160  A    between atoms: _395  and  _396
REMARK  161  A    between atoms: _400  and  _402
REMARK  162  A    between atoms: _402  and  _403
REMARK  163  A    between atoms: _402  and  _405
REMARK  164  A    between atoms: _405  and  _406
REMARK  165  A    between atoms: _409  and  _411
REMARK  166  A    between atoms: _411  and  _412
REMARK  167  A    between atoms: _411  and  _414
REMARK  168  A    between atoms: _417  and  _419
REMARK  169  A    between atoms: _419  and  _420
REMARK  170  A    between atoms: _419  and  _422
REMARK  171  A    between atoms: _422  and  _423
REMARK  172  A    between atoms: _426  and  _428
REMARK  173  A    between atoms: _428  and  _429
REMARK  174  A    between atoms: _428  and  _431
REMARK  175  A    between atoms: _431  and  _432
REMARK  176  A    between atoms: _434  and  _436
REMARK  177  A    between atoms: _436  and  _437
REMARK  178  A    between atoms: _439  and  _441
REMARK  179  A    between atoms: _441  and  _442
REMARK  180  A    between atoms: _441  and  _444
REMARK  181  A    between atoms: _444  and  _445
REMARK  182  A    between atoms: _448  and  _450
REMARK  183  A    between atoms: _450  and  _451
REMARK  184  A    between atoms: _450  and  _453
REMARK  185  A    between atoms: _453  and  _454
REMARK  186  A    between atoms: _457  and  _459
REMARK  187  A    between atoms: _459  and  _460
REMARK  188  A    between atoms: _459  and  _462
REMARK  189  A    between atoms: _462  and  _463
REMARK  190  A    between atoms: _468  and  _470
REMARK  191  A    between atoms: _470  and  _471
REMARK  192  A    between atoms: _470  and  _473
REMARK  193  A    between atoms: _473  and  _474
REMARK  194  A    between atoms: _474  and  _475
REMARK  195  A    between atoms: _475  and  _476
REMARK  196  A    between atoms: _485  and  _487
REMARK  197  A    between atoms: _487  and  _488
REMARK  198  A    between atoms: _487  and  _490
REMARK  199  A    between atoms: _490  and  _491
REMARK  200  A    between atoms: _493  and  _495
REMARK  201  A    between atoms: _495  and  _496
REMARK  202  A    between atoms: _495  and  _498
REMARK  203  A    between atoms: _498  and  _499
REMARK  204  A    between atoms: _499  and  _500
REMARK  205  A    between atoms: _505  and  _507
REMARK  206  A    between atoms: _507  and  _508
REMARK  207  A    between atoms: _507  and  _510
REMARK  208  A    between atoms: _510  and  _511
REMARK  209  A    between atoms: _513  and  _515
REMARK  210  A    between atoms: _515  and  _516
REMARK  211  A    between atoms: _515  and  _518
REMARK  212  A    between atoms: _518  and  _519
REMARK  213  A    between atoms: _521  and  _523
REMARK  214  A    between atoms: _523  and  _524
REMARK  215  A    between atoms: _523  and  _526
REMARK  216  A    between atoms: _526  and  _527
REMARK  217  A    between atoms: _530  and  _532
REMARK  218  A    between atoms: _532  and  _533
REMARK  219  A    between atoms: _535  and  _537
REMARK  220  A    between atoms: _537  and  _538
REMARK  221  A    between atoms: _537  and  _540
REMARK  222  A    between atoms: _540  and  _541
REMARK  223  A    between atoms: _544  and  _546
REMARK  224  A    between atoms: _546  and  _547
REMARK  225  A    between atoms: _546  and  _549
REMARK  226  A    between atoms: _552  and  _554
REMARK  227  A    between atoms: _554  and  _555
REMARK  228  A    between atoms: _554  and  _557
REMARK  229  A    between atoms: _557  and  _558
REMARK  230  A    between atoms: _558  and  _559
REMARK                            x       y       z     vdW  Elec       q    Type
REMARK                         _______ _______ _______ _____ _____    ______ ____
ROOT
ATOM      1  CA  ILE A   1     -15.505  16.895  39.080  0.00  0.00    +0.133 C 
ENDROOT
BRANCH   1   2
ATOM      2  N   ILE A   1     -16.132  17.486  40.267  0.00  0.00    -0.239 NA
ATOM      3  H   ILE A   1     -15.581  17.578  41.144  0.00  0.00    +0.142 HD
ENDBRANCH   1   2
BRANCH   1   4
ATOM      4  C   ILE A   1     -15.254  15.387  39.223  0.00  0.00    +0.224 C 
ATOM      5  O   ILE A   1     -14.689  14.756  38.324  0.00  0.00    -0.287 OA
ENDBRANCH   1   4
BRANCH   1   6
ATOM      6  CB  ILE A   1     -14.216  17.657  38.644  0.00  0.00    +0.023 C 
ATOM      7  CG2 ILE A   1     -14.555  19.103  38.267  0.00  0.00    +0.002 C 
BRANCH   6   8
ATOM      8  CG1 ILE A   1     -13.154  17.612  39.742  0.00  0.00    +0.002 C 
ATOM      9  CD1 ILE A   1     -11.740  17.720  39.237  0.00  0.00    +0.000 C 
ENDBRANCH   6   8
ENDBRANCH   1   6
TORSDOF 4
REMARK  Name = ../refined-set-2016/4fsl/4fsl_pocket.pdb
REMARK  230 active torsions:
REMARK  status: ('A' for Active; 'I' for Inactive)
REMARK    1  A    between atoms: _1  and  _3
REMARK    2  A    between atoms: _3  and  _4
REMARK    3  A    between atoms: _3  and  _6
REMARK    4  A    between atoms: _6  and  _7
REMARK    5  A    between atoms: _9  and  _11
REMARK    6  A    between atoms: _11  and  _12
REMARK    7  A    between atoms: _14  and  _16
REMARK    8  A    between atoms: _16  and  _17
REMARK    9  A    between atoms: _16  and  _19
REMARK   10  A    between atoms: _19  and  _20
REMARK   11  A    between atoms: _20  and  _21
REMARK   12  A    between atoms: _26  and  _28
REMARK   13  A    between atoms: _28  and  _29
REMARK   14  A    between atoms: _31  and  _33
REMARK   15  A    between atoms: _33  and  _34
REMARK   16  A    between atoms: _33  and  _36
REMARK   17  A    between atoms: _36  and  _37
REMARK   18  A    between atoms: _42  and  _43
REMARK   19  A    between atoms: _45  and  _47
REMARK   20  A    between atoms: _47  and  _48
REMARK   21  A    between atoms: _47  and  _50
REMARK   22  A    between atoms: _50  and  _51
REMARK   23  A    between atoms: _54  and  _56
REMARK   24  A    between atoms: _56  and  _57
REMARK   25  A    between atoms: _56  and  _59
REMARK   26  A    between atoms: _62  and  _64
REMARK   27  A    between atoms: _64  and  _65
REMARK   28  A    between atoms: _64  and  _67
REMARK   29  A    between atoms: _67  and  _68
REMARK   30  A    between atoms: _71  and  _73
REMARK   31  A    between atoms: _73  and  _74
REMARK   32  A    between atoms: _73  and  _76
REMARK   33  A    between atoms: _76  and  _77
REMARK   34  A    between atoms: _80  and  _82
REMARK   35  A    between atoms: _82  and  _83
REMARK   36  A    between atoms: _85  and  _87
REMARK   37  A    between atoms: _87  and  _88
REMARK   38  A    between atoms: _87  and  _90
REMARK   39  A    between atoms: _90  and  _91
REMARK   40  A    between atoms: _93  and  _95
REMARK   41  A    between atoms: _95  and  _96
REMARK   42  A    between atoms: _95  and  _98
REMARK   43  A    between atoms: _98  and  _99
REMARK   44  A    between atoms: _101  and  _103
REMARK   45  A    between atoms: _103  and  _104
REMARK   46  A    between atoms: _103  and  _106
REMARK   47  A    between atoms: _106  and  _107
REMARK   48  A    between atoms: _112  and  _114
REMARK   49  A    between atoms: _114  and  _115
REMARK   50  A    between atoms: _114  and  _117
REMARK   51  A    between atoms: _117  and  _118
REMARK   52  A    between atoms: _124  and  _126
REMARK   53  A    between atoms: _126  and  _127
REMARK   54  A    between atoms: _126  and  _129
REMARK   55  A    between atoms: _133  and  _134
REMARK   56  A    between atoms: _139  and  _141
REMARK   57  A    between atoms: _141  and  _142
REMARK   58  A    between atoms: _141  and  _144
REMARK   59  A    between atoms: _144  and  _145
REMARK   60  A    between atoms: _150  and  _151
REMARK   61  A    between atoms: _153  and  _155
REMARK   62  A    between atoms: _155  and  _156
REMARK   63  A    between atoms: _155  and  _158
REMARK   64  A    between atoms: _158  and  _159
REMARK   65  A    between atoms: _162  and  _164
REMARK   66  A    between atoms: _164  and  _165
REMARK   67  A    between atoms: _164  and  _167
REMARK   68  A    between atoms: _167  and  _168
REMARK   69  A    between atoms: _168  and  _169
REMARK   70  A    between atoms: _174  and  _176
REMARK   71  A    between atoms: _176  and  _177
REMARK   72  A    between atoms: _179  and  _181
REMARK   73  A    between atoms: _181  and  _182
REMARK   74  A    between atoms: _181  and  _184
REMARK   75  A    between atoms: _184  and  _185
REMARK   76  A    between atoms: _185  and  _186
REMARK   77  A    between atoms: _186  and  _187
REMARK   78  A    between atoms: _187  and  _188
REMARK   79  A    between atoms: _192  and  _194
REMARK   80  A    between atoms: _194  and  _195
REMARK   81  A    between atoms: _194  and  _197
REMARK   82  A    between atoms: _197  and  _198
REMARK   83  A    between atoms: _208  and  _210
REMARK   84  A    between atoms: _210  and  _211
REMARK   85  A    between atoms: _210  and  _213
REMARK   86  A    between atoms: _213  and  _214
REMARK   87  A    between atoms: _217  and  _219
REMARK   88  A    between atoms: _219  and  _220
REMARK   89  A    between atoms: _219  and  _222
REMARK   90  A    between atoms: _222  and  _223
REMARK   91  A    between atoms: _223  and  _224
REMARK   92  A    between atoms: _224  and  _225
REMARK   93  A    between atoms: _225  and  _226
REMARK   94  A    between atoms: _230  and  _232
REMARK   95  A    between atoms: _232  and  _233
REMARK   96  A    between atoms: _232  and  _235
REMARK   97  A    between atoms: _235  and  _236
REMARK   98  A    between atoms: _242  and  _244
REMARK   99  A    between atoms: _244  and  _245
REMARK  100  A    between atoms: _244  and  _247
REMARK  101  A    between atoms: _247  and  _248
REMARK  102  A    between atoms: _254  and  _256
REMARK  103  A    between atoms: _256  and  _257
REMARK  104  A    between atoms: _256  and  _259
REMARK  105  A    between atoms: _259  and  _260
REMARK  106  A    between atoms: _263  and  _265
REMARK  107  A    between atoms: _265  and  _266
REMARK  108  A    between atoms: _265  and  _268
REMARK  109  A    between atoms: _268  and  _269
REMARK  110  A    between atoms: _274  and  _276
REMARK  111  A    between atoms: _276  and  _277
REMARK  112  A    between atoms: _276  and  _279
REMARK  113  A    between atoms: _279  and  _280
REMARK  114  A    between atoms: _282  and  _284
REMARK  115  A    between atoms: _284  and  _285
REMARK  116  A    between atoms: _284  and  _287
REMARK  117  A    between atoms: _287  and  _288
REMARK  118  A    between atoms: _298  and  _300
REMARK  119  A    between atoms: _300  and  _301
REMARK  120  A    between atoms: _303  and  _305
REMARK  121  A    between atoms: _305  and  _306
REMARK  122  A    between atoms: _305  and  _308
REMARK  123  A    between atoms: _308  and  _309
REMARK  124  A    between atoms: _312  and  _314
REMARK  125  A    between atoms: _314  and  _315
REMARK  126  A    between atoms: _314  and  _317
REMARK  127  A    between atoms: _317  and  _318
REMARK  128  A    between atoms: _321  and  _323
REMARK  129  A    between atoms: _323  and  _324
REMARK  130  A    between atoms: _326  and  _328
REMARK  131  A    between atoms: _328  and  _329
REMARK  132  A    between atoms: _328  and  _331
REMARK  133  A    between atoms: _331  and  _332
REMARK  134  A    between atoms: _335  and  _337
REMARK  135  A    between atoms: _337  and  _338
REMARK  136  A    between atoms: _341  and  _343
REMARK  137  A    between atoms: _343  and  _344
REMARK  138  A    between atoms: _343  and  _346
REMARK  139  A    between atoms: _346  and  _347
REMARK  140  A    between atoms: _350  and  _352
REMARK  141  A    between atoms: _352  and  _353
REMARK  142  A    between atoms: _352  and  _355
REMARK  143  A    between atoms: _355  and  _356
REMARK  144  A    between atoms: _361  and  _362
REMARK  145  A    between atoms: _364  and  _366
REMARK  146  A    between atoms: _366  and  _367
REMARK  147  A    between atoms: _366  and  _369
REMARK  148  A    between atoms: _369  and  _370
REMARK  149  A    between atoms: _375  and  _376
REMARK  150  A    between atoms: _378  and  _380
REMARK  151  A    between atoms: _380  and  _381
REMARK  152  A    between atoms: _380  and  _383
REMARK  153  A    between atoms: _383  and  _384
REMARK  154  A    between atoms: _387  and  _389
REMARK  155  A    between atoms: _389  and  _390
REMARK  156  A    between atoms: _389  and  _392
REMARK  157  A    between atoms: _392  and  _393
REMARK  158  A    between atoms: _393  and  _394
REMARK  159  A    between atoms: _394  and  _395
REMARK  160  A    between atoms: _395  and  _396
REMARK  161  A    between atoms: _400  and  _402
REMARK  162  A    between atoms: _402  and  _403
REMARK  163  A    between atoms: _402  and  _405
REMARK  164  A    between atoms: _405  and  _406
REMARK  165  A    between atoms: _409  and  _411
REMARK  166  A    between atoms: _411  and  _412
REMARK  167  A    between atoms: _411  and  _414
REMARK  168  A    between atoms: _417  and  _419
REMARK  169  A    between atoms: _419  and  _420
REMARK  170  A    between atoms: _419  and  _422
REMARK  171  A    between atoms: _422  and  _423
REMARK  172  A    between atoms: _426  and  _428
REMARK  173  A    between atoms: _428  and  _429
REMARK  174  A    between atoms: _428  and  _431
REMARK  175  A    between atoms: _431  and  _432
REMARK  176  A    between atoms: _434  and  _436
REMARK  177  A    between atoms: _436  and  _437
REMARK  178  A    between atoms: _439  and  _441
REMARK  179  A    between atoms: _441  and  _442
REMARK  180  A    between atoms: _441  and  _444
REMARK  181  A    between atoms: _444  and  _445
REMARK  182  A    between atoms: _448  and  _450
REMARK  183  A    between atoms: _450  and  _451
REMARK  184  A    between atoms: _450  and  _453
REMARK  185  A    between atoms: _453  and  _454
REMARK  186  A    between atoms: _457  and  _459
REMARK  187  A    between atoms: _459  and  _460
REMARK  188  A    between atoms: _459  and  _462
REMARK  189  A    between atoms: _462  and  _463
REMARK  190  A    between atoms: _468  and  _470
REMARK  191  A    between atoms: _470  and  _471
REMARK  192  A    between atoms: _470  and  _473
REMARK  193  A    between atoms: _473  and  _474
REMARK  194  A    between atoms: _474  and  _475
REMARK  195  A    between atoms: _475  and  _476
REMARK  196  A    between atoms: _485  and  _487
REMARK  197  A    between atoms: _487  and  _488
REMARK  198  A    between atoms: _487  and  _490
REMARK  199  A    between atoms: _490  and  _491
REMARK  200  A    between atoms: _493  and  _495
REMARK  201  A    between atoms: _495  and  _496
REMARK  202  A    between atoms: _495  and  _498
REMARK  203  A    between atoms: _498  and  _499
REMARK  204  A    between atoms: _499  and  _500
REMARK  205  A    between atoms: _505  and  _507
REMARK  206  A    between atoms: _507  and  _508
REMARK  207  A    between atoms: _507  and  _510
REMARK  208  A    between atoms: _510  and  _511
REMARK  209  A    between atoms: _513  and  _515
REMARK  210  A    between atoms: _515  and  _516
REMARK  211  A    between atoms: _515  and  _518
REMARK  212  A    between atoms: _518  and  _519
REMARK  213  A    between atoms: _521  and  _523
REMARK  214  A    between atoms: _523  and  _524
REMARK  215  A    between atoms: _523  and  _526
REMARK  216  A    between atoms: _526  and  _527
REMARK  217  A    between atoms: _530  and  _532
REMARK  218  A    between atoms: _532  and  _533
REMARK  219  A    between atoms: _535  and  _537
REMARK  220  A    between atoms: _537  and  _538
REMARK  221  A    between atoms: _537  and  _540
REMARK  222  A    between atoms: _540  and  _541
REMARK  223  A    between atoms: _544  and  _546
REMARK  224  A    between atoms: _546  and  _547
REMARK  225  A    between atoms: _546  and  _549
REMARK  226  A    between atoms: _552  and  _554
REMARK  227  A    between atoms: _554  and  _555
REMARK  228  A    between atoms: _554  and  _557
REMARK  229  A    between atoms: _557  and  _558
REMARK  230  A    between atoms: _558  and  _559
REMARK                            x       y       z     vdW  Elec       q    Type
REMARK                         _______ _______ _______ _____ _____    ______ ____
ROOT
ATOM      1  C   TYR A   1      -9.854  22.870  41.395  0.00  0.00    +0.239 C 
ATOM      2  O   TYR A   1     -10.621  23.543  42.092  0.00  0.00    -0.274 OA
ATOM      3  N   TYR A   2      -8.538  22.900  41.552  0.00  0.00    -0.298 N 
ATOM      4  H   TYR A   2      -7.941  22.181  41.096  0.00  0.00    +0.150 HD
ENDROOT
BRANCH   1   5
ATOM      5  CA  TYR A   1     -10.407  21.954  40.314  0.00  0.00    +0.149 C 
BRANCH   5   6
ATOM      6  N   TYR A   1     -11.850  22.121  40.378  0.00  0.00    -0.238 NA
ATOM      7  H   TYR A   1     -12.316  22.765  39.708  0.00  0.00    +0.142 HD
ENDBRANCH   5   6
BRANCH   5   8
ATOM      8  CB  TYR A   1      -9.870  22.385  38.949  0.00  0.00    +0.053 C 
BRANCH   8   9
ATOM      9  CG  TYR A   1     -10.354  21.546  37.796  0.00  0.00    -0.020 A 
ATOM     10  CD2 TYR A   1      -9.785  20.302  37.531  0.00  0.00    -0.001 A 
ATOM     11  CE2 TYR A   1     -10.229  19.520  36.472  0.00  0.00    +0.036 A 
ATOM     12  CZ  TYR A   1     -11.241  19.984  35.659  0.00  0.00    +0.134 A 
ATOM     13  CE1 TYR A   1     -11.823  21.221  35.896  0.00  0.00    +0.036 A 
ATOM     14  CD1 TYR A   1     -11.376  21.994  36.964  0.00  0.00    -0.001 A 
BRANCH  12  15
ATOM     15  OH  TYR A   1     -11.676  19.206  34.610  0.00  0.00    -0.506 OA
ATOM     16  HH  TYR A   1     -11.156  18.364  34.588  0.00  0.00    +0.292 HD
ENDBRANCH  12  15
ENDBRANCH   8   9
ENDBRANCH   5   8
ENDBRANCH   1   5
BRANCH   3  17
ATOM     17  CA  TYR A   2      -7.934  23.943  42.365  0.00  0.00    +0.141 C 
BRANCH  17  18
ATOM     18  C   TYR A   2      -7.700  25.141  41.453  0.00  0.00    +0.227 C 
ATOM     19  O   TYR A   2      -6.620  25.305  40.882  0.00  0.00    -0.286 OA
ENDBRANCH  17  18
BRANCH  17  20
ATOM     20  CB  TYR A   2      -6.664  23.442  43.057  0.00  0.00    +0.054 C 
BRANCH  20  21
ATOM     21  CG  TYR A   2      -6.966  22.454  44.167  0.00  0.00    -0.020 A 
ATOM     22  CD2 TYR A   2      -7.410  22.895  45.417  0.00  0.00    -0.001 A 
ATOM     23  CE2 TYR A   2      -7.705  21.994  46.434  0.00  0.00    +0.036 A 
ATOM     24  CZ  TYR A   2      -7.559  20.628  46.200  0.00  0.00    +0.134 A 
ATOM     25  CE1 TYR A   2      -7.123  20.168  44.962  0.00  0.00    +0.036 A 
ATOM     26  CD1 TYR A   2      -6.836  21.079  43.957  0.00  0.00    -0.001 A 
BRANCH  24  27
ATOM     27  OH  TYR A   2      -7.845  19.728  47.200  0.00  0.00    -0.506 OA
ATOM     28  HH  TYR A   2      -7.689  18.808  46.869  0.00  0.00    +0.292 HD
ENDBRANCH  24  27
ENDBRANCH  20  21
ENDBRANCH  17  20
ENDBRANCH   3  17
TORSDOF 10
REMARK  Name = ../refined-set-2016/4fsl/4fsl_pocket.pdb
REMARK  230 active torsions:
REMARK  status: ('A' for Active; 'I' for Inactive)
REMARK    1  A    between atoms: _1  and  _3
REMARK    2  A    between atoms: _3  and  _4
REMARK    3  A    between atoms: _3  and  _6
REMARK    4  A    between atoms: _6  and  _7
REMARK    5  A    between atoms: _9  and  _11
REMARK    6  A    between atoms: _11  and  _12
REMARK    7  A    between atoms: _14  and  _16
REMARK    8  A    between atoms: _16  and  _17
REMARK    9  A    between atoms: _16  and  _19
REMARK   10  A    between atoms: _19  and  _20
REMARK   11  A    between atoms: _20  and  _21
REMARK   12  A    between atoms: _26  and  _28
REMARK   13  A    between atoms: _28  and  _29
REMARK   14  A    between atoms: _31  and  _33
REMARK   15  A    between atoms: _33  and  _34
REMARK   16  A    between atoms: _33  and  _36
REMARK   17  A    between atoms: _36  and  _37
REMARK   18  A    between atoms: _42  and  _43
REMARK   19  A    between atoms: _45  and  _47
REMARK   20  A    between atoms: _47  and  _48
REMARK   21  A    between atoms: _47  and  _50
REMARK   22  A    between atoms: _50  and  _51
REMARK   23  A    between atoms: _54  and  _56
REMARK   24  A    between atoms: _56  and  _57
REMARK   25  A    between atoms: _56  and  _59
REMARK   26  A    between atoms: _62  and  _64
REMARK   27  A    between atoms: _64  and  _65
REMARK   28  A    between atoms: _64  and  _67
REMARK   29  A    between atoms: _67  and  _68
REMARK   30  A    between atoms: _71  and  _73
REMARK   31  A    between atoms: _73  and  _74
REMARK   32  A    between atoms: _73  and  _76
REMARK   33  A    between atoms: _76  and  _77
REMARK   34  A    between atoms: _80  and  _82
REMARK   35  A    between atoms: _82  and  _83
REMARK   36  A    between atoms: _85  and  _87
REMARK   37  A    between atoms: _87  and  _88
REMARK   38  A    between atoms: _87  and  _90
REMARK   39  A    between atoms: _90  and  _91
REMARK   40  A    between atoms: _93  and  _95
REMARK   41  A    between atoms: _95  and  _96
REMARK   42  A    between atoms: _95  and  _98
REMARK   43  A    between atoms: _98  and  _99
REMARK   44  A    between atoms: _101  and  _103
REMARK   45  A    between atoms: _103  and  _104
REMARK   46  A    between atoms: _103  and  _106
REMARK   47  A    between atoms: _106  and  _107
REMARK   48  A    between atoms: _112  and  _114
REMARK   49  A    between atoms: _114  and  _115
REMARK   50  A    between atoms: _114  and  _117
REMARK   51  A    between atoms: _117  and  _118
REMARK   52  A    between atoms: _124  and  _126
REMARK   53  A    between atoms: _126  and  _127
REMARK   54  A    between atoms: _126  and  _129
REMARK   55  A    between atoms: _133  and  _134
REMARK   56  A    between atoms: _139  and  _141
REMARK   57  A    between atoms: _141  and  _142
REMARK   58  A    between atoms: _141  and  _144
REMARK   59  A    between atoms: _144  and  _145
REMARK   60  A    between atoms: _150  and  _151
REMARK   61  A    between atoms: _153  and  _155
REMARK   62  A    between atoms: _155  and  _156
REMARK   63  A    between atoms: _155  and  _158
REMARK   64  A    between atoms: _158  and  _159
REMARK   65  A    between atoms: _162  and  _164
REMARK   66  A    between atoms: _164  and  _165
REMARK   67  A    between atoms: _164  and  _167
REMARK   68  A    between atoms: _167  and  _168
REMARK   69  A    between atoms: _168  and  _169
REMARK   70  A    between atoms: _174  and  _176
REMARK   71  A    between atoms: _176  and  _177
REMARK   72  A    between atoms: _179  and  _181
REMARK   73  A    between atoms: _181  and  _182
REMARK   74  A    between atoms: _181  and  _184
REMARK   75  A    between atoms: _184  and  _185
REMARK   76  A    between atoms: _185  and  _186
REMARK   77  A    between atoms: _186  and  _187
REMARK   78  A    between atoms: _187  and  _188
REMARK   79  A    between atoms: _192  and  _194
REMARK   80  A    between atoms: _194  and  _195
REMARK   81  A    between atoms: _194  and  _197
REMARK   82  A    between atoms: _197  and  _198
REMARK   83  A    between atoms: _208  and  _210
REMARK   84  A    between atoms: _210  and  _211
REMARK   85  A    between atoms: _210  and  _213
REMARK   86  A    between atoms: _213  and  _214
REMARK   87  A    between atoms: _217  and  _219
REMARK   88  A    between atoms: _219  and  _220
REMARK   89  A    between atoms: _219  and  _222
REMARK   90  A    between atoms: _222  and  _223
REMARK   91  A    between atoms: _223  and  _224
REMARK   92  A    between atoms: _224  and  _225
REMARK   93  A    between atoms: _225  and  _226
REMARK   94  A    between atoms: _230  and  _232
REMARK   95  A    between atoms: _232  and  _233
REMARK   96  A    between atoms: _232  and  _235
REMARK   97  A    between atoms: _235  and  _236
REMARK   98  A    between atoms: _242  and  _244
REMARK   99  A    between atoms: _244  and  _245
REMARK  100  A    between atoms: _244  and  _247
REMARK  101  A    between atoms: _247  and  _248
REMARK  102  A    between atoms: _254  and  _256
REMARK  103  A    between atoms: _256  and  _257
REMARK  104  A    between atoms: _256  and  _259
REMARK  105  A    between atoms: _259  and  _260
REMARK  106  A    between atoms: _263  and  _265
REMARK  107  A    between atoms: _265  and  _266
REMARK  108  A    between atoms: _265  and  _268
REMARK  109  A    between atoms: _268  and  _269
REMARK  110  A    between atoms: _274  and  _276
REMARK  111  A    between atoms: _276  and  _277
REMARK  112  A    between atoms: _276  and  _279
REMARK  113  A    between atoms: _279  and  _280
REMARK  114  A    between atoms: _282  and  _284
REMARK  115  A    between atoms: _284  and  _285
REMARK  116  A    between atoms: _284  and  _287
REMARK  117  A    between atoms: _287  and  _288
REMARK  118  A    between atoms: _298  and  _300
REMARK  119  A    between atoms: _300  and  _301
REMARK  120  A    between atoms: _303  and  _305
REMARK  121  A    between atoms: _305  and  _306
REMARK  122  A    between atoms: _305  and  _308
REMARK  123  A    between atoms: _308  and  _309
REMARK  124  A    between atoms: _312  and  _314
REMARK  125  A    between atoms: _314  and  _315
REMARK  126  A    between atoms: _314  and  _317
REMARK  127  A    between atoms: _317  and  _318
REMARK  128  A    between atoms: _321  and  _323
REMARK  129  A    between atoms: _323  and  _324
REMARK  130  A    between atoms: _326  and  _328
REMARK  131  A    between atoms: _328  and  _329
REMARK  132  A    between atoms: _328  and  _331
REMARK  133  A    between atoms: _331  and  _332
REMARK  134  A    between atoms: _335  and  _337
REMARK  135  A    between atoms: _337  and  _338
REMARK  136  A    between atoms: _341  and  _343
REMARK  137  A    between atoms: _343  and  _344
REMARK  138  A    between atoms: _343  and  _346
REMARK  139  A    between atoms: _346  and  _347
REMARK  140  A    between atoms: _350  and  _352
REMARK  141  A    between atoms: _352  and  _353
REMARK  142  A    between atoms: _352  and  _355
REMARK  143  A    between atoms: _355  and  _356
REMARK  144  A    between atoms: _361  and  _362
REMARK  145  A    between atoms: _364  and  _366
REMARK  146  A    between atoms: _366  and  _367
REMARK  147  A    between atoms: _366  and  _369
REMARK  148  A    between atoms: _369  and  _370
REMARK  149  A    between atoms: _375  and  _376
REMARK  150  A    between atoms: _378  and  _380
REMARK  151  A    between atoms: _380  and  _381
REMARK  152  A    between atoms: _380  and  _383
REMARK  153  A    between atoms: _383  and  _384
REMARK  154  A    between atoms: _387  and  _389
REMARK  155  A    between atoms: _389  and  _390
REMARK  156  A    between atoms: _389  and  _392
REMARK  157  A    between atoms: _392  and  _393
REMARK  158  A    between atoms: _393  and  _394
REMARK  159  A    between atoms: _394  and  _395
REMARK  160  A    between atoms: _395  and  _396
REMARK  161  A    between atoms: _400  and  _402
REMARK  162  A    between atoms: _402  and  _403
REMARK  163  A    between atoms: _402  and  _405
REMARK  164  A    between atoms: _405  and  _406
REMARK  165  A    between atoms: _409  and  _411
REMARK  166  A    between atoms: _411  and  _412
REMARK  167  A    between atoms: _411  and  _414
REMARK  168  A    between atoms: _417  and  _419
REMARK  169  A    between atoms: _419  and  _420
REMARK  170  A    between atoms: _419  and  _422
REMARK  171  A    between atoms: _422  and  _423
REMARK  172  A    between atoms: _426  and  _428
REMARK  173  A    between atoms: _428  and  _429
REMARK  174  A    between atoms: _428  and  _431
REMARK  175  A    between atoms: _431  and  _432
REMARK  176  A    between atoms: _434  and  _436
REMARK  177  A    between atoms: _436  and  _437
REMARK  178  A    between atoms: _439  and  _441
REMARK  179  A    between atoms: _441  and  _442
REMARK  180  A    between atoms: _441  and  _444
REMARK  181  A    between atoms: _444  and  _445
REMARK  182  A    between atoms: _448  and  _450
REMARK  183  A    between atoms: _450  and  _451
REMARK  184  A    between atoms: _450  and  _453
REMARK  185  A    between atoms: _453  and  _454
REMARK  186  A    between atoms: _457  and  _459
REMARK  187  A    between atoms: _459  and  _460
REMARK  188  A    between atoms: _459  and  _462
REMARK  189  A    between atoms: _462  and  _463
REMARK  190  A    between atoms: _468  and  _470
REMARK  191  A    between atoms: _470  and  _471
REMARK  192  A    between atoms: _470  and  _473
REMARK  193  A    between atoms: _473  and  _474
REMARK  194  A    between atoms: _474  and  _475
REMARK  195  A    between atoms: _475  and  _476
REMARK  196  A    between atoms: _485  and  _487
REMARK  197  A    between atoms: _487  and  _488
REMARK  198  A    between atoms: _487  and  _490
REMARK  199  A    between atoms: _490  and  _491
REMARK  200  A    between atoms: _493  and  _495
REMARK  201  A    between atoms: _495  and  _496
REMARK  202  A    between atoms: _495  and  _498
REMARK  203  A    between atoms: _498  and  _499
REMARK  204  A    between atoms: _499  and  _500
REMARK  205  A    between atoms: _505  and  _507
REMARK  206  A    between atoms: _507  and  _508
REMARK  207  A    between atoms: _507  and  _510
REMARK  208  A    between atoms: _510  and  _511
REMARK  209  A    between atoms: _513  and  _515
REMARK  210  A    between atoms: _515  and  _516
REMARK  211  A    between atoms: _515  and  _518
REMARK  212  A    between atoms: _518  and  _519
REMARK  213  A    between atoms: _521  and  _523
REMARK  214  A    between atoms: _523  and  _524
REMARK  215  A    between atoms: _523  and  _526
REMARK  216  A    between atoms: _526  and  _527
REMARK  217  A    between atoms: _530  and  _532
REMARK  218  A    between atoms: _532  and  _533
REMARK  219  A    between atoms: _535  and  _537
REMARK  220  A    between atoms: _537  and  _538
REMARK  221  A    between atoms: _537  and  _540
REMARK  222  A    between atoms: _540  and  _541
REMARK  223  A    between atoms: _544  and  _546
REMARK  224  A    between atoms: _546  and  _547
REMARK  225  A    between atoms: _546  and  _549
REMARK  226  A    between atoms: _552  and  _554
REMARK  227  A    between atoms: _554  and  _555
REMARK  228  A    between atoms: _554  and  _557
REMARK  229  A    between atoms: _557  and  _558
REMARK  230  A    between atoms: _558  and  _559
REMARK                            x       y       z     vdW  Elec       q    Type
REMARK                         _______ _______ _______ _____ _____    ______ ____
ROOT
ATOM      1  C   ASP A   1     -10.933  28.629  31.643  0.00  0.00    +0.239 C 
ATOM      2  O   ASP A   1     -11.930  28.861  32.332  0.00  0.00    -0.274 OA
ATOM      3  N   LYS A   2      -9.770  28.243  32.159  0.00  0.00    -0.298 N 
ATOM      4  H   LYS A   2      -8.999  27.992  31.508  0.00  0.00    +0.150 HD
ENDROOT
BRANCH   1   5
ATOM      5  CA  ASP A   1     -10.985  28.774  30.113  0.00  0.00    +0.156 C 
BRANCH   5   6
ATOM      6  N   ASP A   1      -9.722  28.447  29.444  0.00  0.00    -0.238 NA
ATOM      7  H   ASP A   1      -9.512  27.443  29.270  0.00  0.00    +0.142 HD
ENDBRANCH   5   6
BRANCH   5   8
ATOM      8  CB  ASP A   1     -12.119  27.916  29.539  0.00  0.00    +0.140 C 
BRANCH   8   9
ATOM      9  CG  ASP A   1     -11.915  26.422  29.779  0.00  0.00    +0.367 C 
ATOM     10  OD2 ASP A   1     -12.816  25.802  30.380  0.00  0.00    -0.246 OA
ATOM     11  OD1 ASP A   1     -10.874  25.863  29.360  0.00  0.00    -0.246 OA
ENDBRANCH   8   9
ENDBRANCH   5   8
ENDBRANCH   1   5
BRANCH   3  12
ATOM     12  CA  LYS A   2      -9.522  28.154  33.599  0.00  0.00    +0.137 C 
BRANCH  12  13
ATOM     13  C   LYS A   2      -8.017  28.150  33.855  0.00  0.00    +0.227 C 
ATOM     14  O   LYS A   2      -7.227  28.002  32.925  0.00  0.00    -0.286 OA
ENDBRANCH  12  13
BRANCH  12  15
ATOM     15  CB  LYS A   2     -10.171  26.896  34.200  0.00  0.00    +0.028 C 
BRANCH  15  16
ATOM     16  CG  LYS A   2      -9.682  25.583  33.595  0.00  0.00    -0.000 C 
BRANCH  16  17
ATOM     17  CD  LYS A   2     -10.349  24.376  34.237  0.00  0.00    -0.024 C 
BRANCH  17  18
ATOM     18  CE  LYS A   2      -9.932  23.091  33.543  0.00  0.00    -0.086 C 
BRANCH  18  19
ATOM     19  NZ  LYS A   2     -10.439  23.026  32.140  0.00  0.00    +0.380 N 
ATOM     20  HZ1 LYS A   2     -11.478  23.071  32.146  0.00  0.00    -0.089 HD
ATOM     21  HZ2 LYS A   2     -10.132  22.134  31.703  0.00  0.00    -0.089 HD
ATOM     22  HZ3 LYS A   2     -10.059  23.828  31.598  0.00  0.00    -0.089 HD
ENDBRANCH  18  19
ENDBRANCH  17  18
ENDBRANCH  16  17
ENDBRANCH  15  16
ENDBRANCH  12  15
ENDBRANCH   3  12
TORSDOF 11
REMARK  Name = ../refined-set-2016/4fsl/4fsl_pocket.pdb
REMARK  230 active torsions:
REMARK  status: ('A' for Active; 'I' for Inactive)
REMARK    1  A    between atoms: _1  and  _3
REMARK    2  A    between atoms: _3  and  _4
REMARK    3  A    between atoms: _3  and  _6
REMARK    4  A    between atoms: _6  and  _7
REMARK    5  A    between atoms: _9  and  _11
REMARK    6  A    between atoms: _11  and  _12
REMARK    7  A    between atoms: _14  and  _16
REMARK    8  A    between atoms: _16  and  _17
REMARK    9  A    between atoms: _16  and  _19
REMARK   10  A    between atoms: _19  and  _20
REMARK   11  A    between atoms: _20  and  _21
REMARK   12  A    between atoms: _26  and  _28
REMARK   13  A    between atoms: _28  and  _29
REMARK   14  A    between atoms: _31  and  _33
REMARK   15  A    between atoms: _33  and  _34
REMARK   16  A    between atoms: _33  and  _36
REMARK   17  A    between atoms: _36  and  _37
REMARK   18  A    between atoms: _42  and  _43
REMARK   19  A    between atoms: _45  and  _47
REMARK   20  A    between atoms: _47  and  _48
REMARK   21  A    between atoms: _47  and  _50
REMARK   22  A    between atoms: _50  and  _51
REMARK   23  A    between atoms: _54  and  _56
REMARK   24  A    between atoms: _56  and  _57
REMARK   25  A    between atoms: _56  and  _59
REMARK   26  A    between atoms: _62  and  _64
REMARK   27  A    between atoms: _64  and  _65
REMARK   28  A    between atoms: _64  and  _67
REMARK   29  A    between atoms: _67  and  _68
REMARK   30  A    between atoms: _71  and  _73
REMARK   31  A    between atoms: _73  and  _74
REMARK   32  A    between atoms: _73  and  _76
REMARK   33  A    between atoms: _76  and  _77
REMARK   34  A    between atoms: _80  and  _82
REMARK   35  A    between atoms: _82  and  _83
REMARK   36  A    between atoms: _85  and  _87
REMARK   37  A    between atoms: _87  and  _88
REMARK   38  A    between atoms: _87  and  _90
REMARK   39  A    between atoms: _90  and  _91
REMARK   40  A    between atoms: _93  and  _95
REMARK   41  A    between atoms: _95  and  _96
REMARK   42  A    between atoms: _95  and  _98
REMARK   43  A    between atoms: _98  and  _99
REMARK   44  A    between atoms: _101  and  _103
REMARK   45  A    between atoms: _103  and  _104
REMARK   46  A    between atoms: _103  and  _106
REMARK   47  A    between atoms: _106  and  _107
REMARK   48  A    between atoms: _112  and  _114
REMARK   49  A    between atoms: _114  and  _115
REMARK   50  A    between atoms: _114  and  _117
REMARK   51  A    between atoms: _117  and  _118
REMARK   52  A    between atoms: _124  and  _126
REMARK   53  A    between atoms: _126  and  _127
REMARK   54  A    between atoms: _126  and  _129
REMARK   55  A    between atoms: _133  and  _134
REMARK   56  A    between atoms: _139  and  _141
REMARK   57  A    between atoms: _141  and  _142
REMARK   58  A    between atoms: _141  and  _144
REMARK   59  A    between atoms: _144  and  _145
REMARK   60  A    between atoms: _150  and  _151
REMARK   61  A    between atoms: _153  and  _155
REMARK   62  A    between atoms: _155  and  _156
REMARK   63  A    between atoms: _155  and  _158
REMARK   64  A    between atoms: _158  and  _159
REMARK   65  A    between atoms: _162  and  _164
REMARK   66  A    between atoms: _164  and  _165
REMARK   67  A    between atoms: _164  and  _167
REMARK   68  A    between atoms: _167  and  _168
REMARK   69  A    between atoms: _168  and  _169
REMARK   70  A    between atoms: _174  and  _176
REMARK   71  A    between atoms: _176  and  _177
REMARK   72  A    between atoms: _179  and  _181
REMARK   73  A    between atoms: _181  and  _182
REMARK   74  A    between atoms: _181  and  _184
REMARK   75  A    between atoms: _184  and  _185
REMARK   76  A    between atoms: _185  and  _186
REMARK   77  A    between atoms: _186  and  _187
REMARK   78  A    between atoms: _187  and  _188
REMARK   79  A    between atoms: _192  and  _194
REMARK   80  A    between atoms: _194  and  _195
REMARK   81  A    between atoms: _194  and  _197
REMARK   82  A    between atoms: _197  and  _198
REMARK   83  A    between atoms: _208  and  _210
REMARK   84  A    between atoms: _210  and  _211
REMARK   85  A    between atoms: _210  and  _213
REMARK   86  A    between atoms: _213  and  _214
REMARK   87  A    between atoms: _217  and  _219
REMARK   88  A    between atoms: _219  and  _220
REMARK   89  A    between atoms: _219  and  _222
REMARK   90  A    between atoms: _222  and  _223
REMARK   91  A    between atoms: _223  and  _224
REMARK   92  A    between atoms: _224  and  _225
REMARK   93  A    between atoms: _225  and  _226
REMARK   94  A    between atoms: _230  and  _232
REMARK   95  A    between atoms: _232  and  _233
REMARK   96  A    between atoms: _232  and  _235
REMARK   97  A    between atoms: _235  and  _236
REMARK   98  A    between atoms: _242  and  _244
REMARK   99  A    between atoms: _244  and  _245
REMARK  100  A    between atoms: _244  and  _247
REMARK  101  A    between atoms: _247  and  _248
REMARK  102  A    between atoms: _254  and  _256
REMARK  103  A    between atoms: _256  and  _257
REMARK  104  A    between atoms: _256  and  _259
REMARK  105  A    between atoms: _259  and  _260
REMARK  106  A    between atoms: _263  and  _265
REMARK  107  A    between atoms: _265  and  _266
REMARK  108  A    between atoms: _265  and  _268
REMARK  109  A    between atoms: _268  and  _269
REMARK  110  A    between atoms: _274  and  _276
REMARK  111  A    between atoms: _276  and  _277
REMARK  112  A    between atoms: _276  and  _279
REMARK  113  A    between atoms: _279  and  _280
REMARK  114  A    between atoms: _282  and  _284
REMARK  115  A    between atoms: _284  and  _285
REMARK  116  A    between atoms: _284  and  _287
REMARK  117  A    between atoms: _287  and  _288
REMARK  118  A    between atoms: _298  and  _300
REMARK  119  A    between atoms: _300  and  _301
REMARK  120  A    between atoms: _303  and  _305
REMARK  121  A    between atoms: _305  and  _306
REMARK  122  A    between atoms: _305  and  _308
REMARK  123  A    between atoms: _308  and  _309
REMARK  124  A    between atoms: _312  and  _314
REMARK  125  A    between atoms: _314  and  _315
REMARK  126  A    between atoms: _314  and  _317
REMARK  127  A    between atoms: _317  and  _318
REMARK  128  A    between atoms: _321  and  _323
REMARK  129  A    between atoms: _323  and  _324
REMARK  130  A    between atoms: _326  and  _328
REMARK  131  A    between atoms: _328  and  _329
REMARK  132  A    between atoms: _328  and  _331
REMARK  133  A    between atoms: _331  and  _332
REMARK  134  A    between atoms: _335  and  _337
REMARK  135  A    between atoms: _337  and  _338
REMARK  136  A    between atoms: _341  and  _343
REMARK  137  A    between atoms: _343  and  _344
REMARK  138  A    between atoms: _343  and  _346
REMARK  139  A    between atoms: _346  and  _347
REMARK  140  A    between atoms: _350  and  _352
REMARK  141  A    between atoms: _352  and  _353
REMARK  142  A    between atoms: _352  and  _355
REMARK  143  A    between atoms: _355  and  _356
REMARK  144  A    between atoms: _361  and  _362
REMARK  145  A    between atoms: _364  and  _366
REMARK  146  A    between atoms: _366  and  _367
REMARK  147  A    between atoms: _366  and  _369
REMARK  148  A    between atoms: _369  and  _370
REMARK  149  A    between atoms: _375  and  _376
REMARK  150  A    between atoms: _378  and  _380
REMARK  151  A    between atoms: _380  and  _381
REMARK  152  A    between atoms: _380  and  _383
REMARK  153  A    between atoms: _383  and  _384
REMARK  154  A    between atoms: _387  and  _389
REMARK  155  A    between atoms: _389  and  _390
REMARK  156  A    between atoms: _389  and  _392
REMARK  157  A    between atoms: _392  and  _393
REMARK  158  A    between atoms: _393  and  _394
REMARK  159  A    between atoms: _394  and  _395
REMARK  160  A    between atoms: _395  and  _396
REMARK  161  A    between atoms: _400  and  _402
REMARK  162  A    between atoms: _402  and  _403
REMARK  163  A    between atoms: _402  and  _405
REMARK  164  A    between atoms: _405  and  _406
REMARK  165  A    between atoms: _409  and  _411
REMARK  166  A    between atoms: _411  and  _412
REMARK  167  A    between atoms: _411  and  _414
REMARK  168  A    between atoms: _417  and  _419
REMARK  169  A    between atoms: _419  and  _420
REMARK  170  A    between atoms: _419  and  _422
REMARK  171  A    between atoms: _422  and  _423
REMARK  172  A    between atoms: _426  and  _428
REMARK  173  A    between atoms: _428  and  _429
REMARK  174  A    between atoms: _428  and  _431
REMARK  175  A    between atoms: _431  and  _432
REMARK  176  A    between atoms: _434  and  _436
REMARK  177  A    between atoms: _436  and  _437
REMARK  178  A    between atoms: _439  and  _441
REMARK  179  A    between atoms: _441  and  _442
REMARK  180  A    between atoms: _441  and  _444
REMARK  181  A    between atoms: _444  and  _445
REMARK  182  A    between atoms: _448  and  _450
REMARK  183  A    between atoms: _450  and  _451
REMARK  184  A    between atoms: _450  and  _453
REMARK  185  A    between atoms: _453  and  _454
REMARK  186  A    between atoms: _457  and  _459
REMARK  187  A    between atoms: _459  and  _460
REMARK  188  A    between atoms: _459  and  _462
REMARK  189  A    between atoms: _462  and  _463
REMARK  190  A    between atoms: _468  and  _470
REMARK  191  A    between atoms: _470  and  _471
REMARK  192  A    between atoms: _470  and  _473
REMARK  193  A    between atoms: _473  and  _474
REMARK  194  A    between atoms: _474  and  _475
REMARK  195  A    between atoms: _475  and  _476
REMARK  196  A    between atoms: _485  and  _487
REMARK  197  A    between atoms: _487  and  _488
REMARK  198  A    between atoms: _487  and  _490
REMARK  199  A    between atoms: _490  and  _491
REMARK  200  A    between atoms: _493  and  _495
REMARK  201  A    between atoms: _495  and  _496
REMARK  202  A    between atoms: _495  and  _498
REMARK  203  A    between atoms: _498  and  _499
REMARK  204  A    between atoms: _499  and  _500
REMARK  205  A    between atoms: _505  and  _507
REMARK  206  A    between atoms: _507  and  _508
REMARK  207  A    between atoms: _507  and  _510
REMARK  208  A    between atoms: _510  and  _511
REMARK  209  A    between atoms: _513  and  _515
REMARK  210  A    between atoms: _515  and  _516
REMARK  211  A    between atoms: _515  and  _518
REMARK  212  A    between atoms: _518  and  _519
REMARK  213  A    between atoms: _521  and  _523
REMARK  214  A    between atoms: _523  and  _524
REMARK  215  A    between atoms: _523  and  _526
REMARK  216  A    between atoms: _526  and  _527
REMARK  217  A    between atoms: _530  and  _532
REMARK  218  A    between atoms: _532  and  _533
REMARK  219  A    between atoms: _535  and  _537
REMARK  220  A    between atoms: _537  and  _538
REMARK  221  A    between atoms: _537  and  _540
REMARK  222  A    between atoms: _540  and  _541
REMARK  223  A    between atoms: _544  and  _546
REMARK  224  A    between atoms: _546  and  _547
REMARK  225  A    between atoms: _546  and  _549
REMARK  226  A    between atoms: _552  and  _554
REMARK  227  A    between atoms: _554  and  _555
REMARK  228  A    between atoms: _554  and  _557
REMARK  229  A    between atoms: _557  and  _558
REMARK  230  A    between atoms: _558  and  _559
REMARK                            x       y       z     vdW  Elec       q    Type
REMARK                         _______ _______ _______ _____ _____    ______ ____
ROOT
ATOM      1  C   SER A   4       0.142  16.223  39.139  0.00  0.00    +0.243 C 
ATOM      2  O   SER A   4       1.192  15.589  39.050  0.00  0.00    -0.273 OA
ATOM      3  N   GLY A   5      -0.984  15.857  38.529  0.00  0.00    -0.295 N 
ATOM      4  H   GLY A   5      -1.834  16.442  38.658  0.00  0.00    +0.150 HD
ENDROOT
BRANCH   3   5
ATOM      5  CA  GLY A   5      -1.073  14.665  37.684  0.00  0.00    +0.176 C 
BRANCH   5   6
ATOM      6  C   GLY A   5      -0.761  14.918  36.219  0.00  0.00    +0.243 C 
ATOM      7  N   THR A   6      -0.480  16.174  35.889  0.00  0.00    -0.295 N 
ATOM      8  H   THR A   6      -0.599  16.917  36.607  0.00  0.00    +0.150 HD
ATOM      9  O   GLY A   5      -0.783  13.993  35.402  0.00  0.00    -0.273 OA
BRANCH   7  10
ATOM     10  CA  THR A   6      -0.012  16.553  34.561  0.00  0.00    +0.176 C 
BRANCH  10  11
ATOM     11  C   THR A   6       1.457  16.961  34.657  0.00  0.00    +0.243 C 
ATOM     12  O   THR A   6       1.865  17.617  35.623  0.00  0.00    -0.273 OA
ATOM     13  N   THR A   7       2.243  16.561  33.659  0.00  0.00    -0.295 N 
ATOM     14  H   THR A   7       1.818  16.043  32.863  0.00  0.00    +0.150 HD
BRANCH  13  15
ATOM     15  CA  THR A   7       3.679  16.823  33.641  0.00  0.00    +0.176 C 
BRANCH  15  16
ATOM     16  C   THR A   7       4.002  18.301  33.390  0.00  0.00    +0.243 C 
ATOM     17  O   THR A   7       4.652  18.950  34.210  0.00  0.00    -0.273 OA
ATOM     18  N   ASN A   8       3.519  18.819  32.264  0.00  0.00    -0.298 N 
ATOM     19  H   ASN A   8       2.824  18.267  31.722  0.00  0.00    +0.150 HD
BRANCH  18  20
ATOM     20  CA  ASN A   8       3.920  20.126  31.756  0.00  0.00    +0.146 C 
BRANCH  20  21
ATOM     21  C   ASN A   8       3.167  21.329  32.309  0.00  0.00    +0.227 C 
ATOM     22  O   ASN A   8       2.116  21.191  32.947  0.00  0.00    -0.286 OA
ENDBRANCH  20  21
BRANCH  20  23
ATOM     23  CB  ASN A   8       3.801  20.136  30.234  0.00  0.00    +0.112 C 
BRANCH  23  24
ATOM     24  CG  ASN A   8       4.898  19.347  29.560  0.00  0.00    +0.222 C 
ATOM     25  OD1 ASN A   8       5.819  18.855  30.214  0.00  0.00    -0.275 OA
ATOM     26  ND2 ASN A   8       4.810  19.225  28.243  0.00  0.00    -0.329 N 
ATOM     27 HD21 ASN A   8       4.014  19.658  27.733  0.00  0.00    +0.145 HD
ATOM     28 HD22 ASN A   8       5.537  18.697  27.720  0.00  0.00    +0.145 HD
ENDBRANCH  23  24
ENDBRANCH  20  23
ENDBRANCH  18  20
ENDBRANCH  15  16
BRANCH  15  29
ATOM     29  CB  THR A   7       4.386  15.930  32.596  0.00  0.00    +0.137 C 
ATOM     30  CG2 THR A   7       5.887  16.198  32.558  0.00  0.00    +0.034 C 
BRANCH  29  31
ATOM     31  OG1 THR A   7       4.165  14.555  32.923  0.00  0.00    -0.382 OA
ATOM     32  HG1 THR A   7       4.533  14.368  33.823  0.00  0.00    +0.210 HD
ENDBRANCH  29  31
ENDBRANCH  15  29
ENDBRANCH  13  15
ENDBRANCH  10  11
BRANCH  10  33
ATOM     33  CB  THR A   6      -0.844  17.718  33.998  0.00  0.00    +0.137 C 
ATOM     34  CG2 THR A   6      -0.440  18.047  32.567  0.00  0.00    +0.034 C 
BRANCH  33  35
ATOM     35  OG1 THR A   6      -2.232  17.363  34.021  0.00  0.00    -0.382 OA
ATOM     36  HG1 THR A   6      -2.509  17.178  34.953  0.00  0.00    +0.210 HD
ENDBRANCH  33  35
ENDBRANCH  10  33
ENDBRANCH   7  10
ENDBRANCH   5   6
ENDBRANCH   3   5
BRANCH   1  37
ATOM     37  CA  SER A   4       0.089  17.510  39.971  0.00  0.00    +0.178 C 
BRANCH  37  39
ATOM     38  C   ASP A   3      -1.264  19.085  38.679  0.00  0.00    +0.241 C 
ATOM     39  N   SER A   4      -1.122  18.318  39.758  0.00  0.00    -0.295 N 
ATOM     40  H   SER A   4      -1.884  18.289  40.466  0.00  0.00    +0.150 HD
ATOM     41  O   ASP A   3      -0.441  19.104  37.769  0.00  0.00    -0.273 OA
BRANCH  38  42
ATOM     42  CA  ASP A   3      -2.528  19.952  38.608  0.00  0.00    +0.160 C 
BRANCH  42  45
ATOM     43  C   VAL A   2      -3.104  21.998  39.818  0.00  0.00    +0.241 C 
ATOM     44  O   VAL A   2      -4.022  21.460  40.444  0.00  0.00    -0.273 OA
ATOM     45  N   ASP A   3      -2.261  21.322  39.041  0.00  0.00    -0.297 N 
ATOM     46  H   ASP A   3      -1.382  21.784  38.731  0.00  0.00    +0.150 HD
BRANCH  43  47
ATOM     47  CA  VAL A   2      -2.872  23.508  39.914  0.00  0.00    +0.148 C 
BRANCH  47  49
ATOM     48  C   ILE A   1      -4.123  24.607  38.117  0.00  0.00    +0.238 C 
ATOM     49  N   VAL A   2      -4.051  24.182  39.376  0.00  0.00    -0.297 N 
ATOM     50  H   VAL A   2      -4.867  24.336  40.002  0.00  0.00    +0.150 HD
ATOM     51  O   ILE A   1      -3.160  24.618  37.341  0.00  0.00    -0.274 OA
BRANCH  48  52
ATOM     52  CA  ILE A   1      -5.501  25.096  37.671  0.00  0.00    +0.145 C 
BRANCH  52  53
ATOM     53  CB  ILE A   1      -6.360  23.872  37.248  0.00  0.00    +0.025 C 
ATOM     54  CG2 ILE A   1      -7.788  24.302  36.907  0.00  0.00    +0.002 C 
BRANCH  53  55
ATOM     55  CG1 ILE A   1      -5.706  23.126  36.078  0.00  0.00    +0.002 C 
ATOM     56  CD1 ILE A   1      -6.178  21.697  35.913  0.00  0.00    +0.000 C 
ENDBRANCH  53  55
ENDBRANCH  52  53
BRANCH  52  57
ATOM     57  N   ILE A   1      -5.475  26.124  36.630  0.00  0.00    -0.238 NA
ATOM     58  H   ILE A   1      -4.859  25.996  35.802  0.00  0.00    +0.142 HD
ENDBRANCH  52  57
ENDBRANCH  48  52
ENDBRANCH  47  49
BRANCH  47  59
ATOM     59  CB  VAL A   2      -2.572  23.938  41.374  0.00  0.00    +0.027 C 
ATOM     60  CG2 VAL A   2      -1.326  23.231  41.900  0.00  0.00    +0.002 C 
ATOM     61  CG1 VAL A   2      -2.404  25.450  41.462  0.00  0.00    +0.002 C 
ENDBRANCH  47  59
ENDBRANCH  43  47
ENDBRANCH  42  45
BRANCH  42  62
ATOM     62  CB  ASP A   3      -3.089  20.011  37.180  0.00  0.00    +0.143 C 
BRANCH  62  63
ATOM     63  CG  ASP A   3      -3.513  18.657  36.632  0.00  0.00    +0.367 C 
ATOM     64  OD2 ASP A   3      -3.372  17.621  37.324  0.00  0.00    -0.246 OA
ATOM     65  OD1 ASP A   3      -3.990  18.644  35.475  0.00  0.00    -0.246 OA
ENDBRANCH  62  63
ENDBRANCH  42  62
ENDBRANCH  38  42
ENDBRANCH  37  39
BRANCH  37  66
ATOM     66  CB  SER A   4       0.314  17.210  41.465  0.00  0.00    +0.166 C 
BRANCH  66  67
ATOM     67  OG  SER A   4      -0.750  16.465  42.031  0.00  0.00    -0.380 OA
ATOM     68  H   SER A   4      -0.837  15.602  41.554  0.00  0.00    +0.211 HD
ENDBRANCH  66  67
ENDBRANCH  37  66
ENDBRANCH   1  37
TORSDOF 29
REMARK  Name = ../refined-set-2016/4fsl/4fsl_pocket.pdb
REMARK  230 active torsions:
REMARK  status: ('A' for Active; 'I' for Inactive)
REMARK    1  A    between atoms: _1  and  _3
REMARK    2  A    between atoms: _3  and  _4
REMARK    3  A    between atoms: _3  and  _6
REMARK    4  A    between atoms: _6  and  _7
REMARK    5  A    between atoms: _9  and  _11
REMARK    6  A    between atoms: _11  and  _12
REMARK    7  A    between atoms: _14  and  _16
REMARK    8  A    between atoms: _16  and  _17
REMARK    9  A    between atoms: _16  and  _19
REMARK   10  A    between atoms: _19  and  _20
REMARK   11  A    between atoms: _20  and  _21
REMARK   12  A    between atoms: _26  and  _28
REMARK   13  A    between atoms: _28  and  _29
REMARK   14  A    between atoms: _31  and  _33
REMARK   15  A    between atoms: _33  and  _34
REMARK   16  A    between atoms: _33  and  _36
REMARK   17  A    between atoms: _36  and  _37
REMARK   18  A    between atoms: _42  and  _43
REMARK   19  A    between atoms: _45  and  _47
REMARK   20  A    between atoms: _47  and  _48
REMARK   21  A    between atoms: _47  and  _50
REMARK   22  A    between atoms: _50  and  _51
REMARK   23  A    between atoms: _54  and  _56
REMARK   24  A    between atoms: _56  and  _57
REMARK   25  A    between atoms: _56  and  _59
REMARK   26  A    between atoms: _62  and  _64
REMARK   27  A    between atoms: _64  and  _65
REMARK   28  A    between atoms: _64  and  _67
REMARK   29  A    between atoms: _67  and  _68
REMARK   30  A    between atoms: _71  and  _73
REMARK   31  A    between atoms: _73  and  _74
REMARK   32  A    between atoms: _73  and  _76
REMARK   33  A    between atoms: _76  and  _77
REMARK   34  A    between atoms: _80  and  _82
REMARK   35  A    between atoms: _82  and  _83
REMARK   36  A    between atoms: _85  and  _87
REMARK   37  A    between atoms: _87  and  _88
REMARK   38  A    between atoms: _87  and  _90
REMARK   39  A    between atoms: _90  and  _91
REMARK   40  A    between atoms: _93  and  _95
REMARK   41  A    between atoms: _95  and  _96
REMARK   42  A    between atoms: _95  and  _98
REMARK   43  A    between atoms: _98  and  _99
REMARK   44  A    between atoms: _101  and  _103
REMARK   45  A    between atoms: _103  and  _104
REMARK   46  A    between atoms: _103  and  _106
REMARK   47  A    between atoms: _106  and  _107
REMARK   48  A    between atoms: _112  and  _114
REMARK   49  A    between atoms: _114  and  _115
REMARK   50  A    between atoms: _114  and  _117
REMARK   51  A    between atoms: _117  and  _118
REMARK   52  A    between atoms: _124  and  _126
REMARK   53  A    between atoms: _126  and  _127
REMARK   54  A    between atoms: _126  and  _129
REMARK   55  A    between atoms: _133  and  _134
REMARK   56  A    between atoms: _139  and  _141
REMARK   57  A    between atoms: _141  and  _142
REMARK   58  A    between atoms: _141  and  _144
REMARK   59  A    between atoms: _144  and  _145
REMARK   60  A    between atoms: _150  and  _151
REMARK   61  A    between atoms: _153  and  _155
REMARK   62  A    between atoms: _155  and  _156
REMARK   63  A    between atoms: _155  and  _158
REMARK   64  A    between atoms: _158  and  _159
REMARK   65  A    between atoms: _162  and  _164
REMARK   66  A    between atoms: _164  and  _165
REMARK   67  A    between atoms: _164  and  _167
REMARK   68  A    between atoms: _167  and  _168
REMARK   69  A    between atoms: _168  and  _169
REMARK   70  A    between atoms: _174  and  _176
REMARK   71  A    between atoms: _176  and  _177
REMARK   72  A    between atoms: _179  and  _181
REMARK   73  A    between atoms: _181  and  _182
REMARK   74  A    between atoms: _181  and  _184
REMARK   75  A    between atoms: _184  and  _185
REMARK   76  A    between atoms: _185  and  _186
REMARK   77  A    between atoms: _186  and  _187
REMARK   78  A    between atoms: _187  and  _188
REMARK   79  A    between atoms: _192  and  _194
REMARK   80  A    between atoms: _194  and  _195
REMARK   81  A    between atoms: _194  and  _197
REMARK   82  A    between atoms: _197  and  _198
REMARK   83  A    between atoms: _208  and  _210
REMARK   84  A    between atoms: _210  and  _211
REMARK   85  A    between atoms: _210  and  _213
REMARK   86  A    between atoms: _213  and  _214
REMARK   87  A    between atoms: _217  and  _219
REMARK   88  A    between atoms: _219  and  _220
REMARK   89  A    between atoms: _219  and  _222
REMARK   90  A    between atoms: _222  and  _223
REMARK   91  A    between atoms: _223  and  _224
REMARK   92  A    between atoms: _224  and  _225
REMARK   93  A    between atoms: _225  and  _226
REMARK   94  A    between atoms: _230  and  _232
REMARK   95  A    between atoms: _232  and  _233
REMARK   96  A    between atoms: _232  and  _235
REMARK   97  A    between atoms: _235  and  _236
REMARK   98  A    between atoms: _242  and  _244
REMARK   99  A    between atoms: _244  and  _245
REMARK  100  A    between atoms: _244  and  _247
REMARK  101  A    between atoms: _247  and  _248
REMARK  102  A    between atoms: _254  and  _256
REMARK  103  A    between atoms: _256  and  _257
REMARK  104  A    between atoms: _256  and  _259
REMARK  105  A    between atoms: _259  and  _260
REMARK  106  A    between atoms: _263  and  _265
REMARK  107  A    between atoms: _265  and  _266
REMARK  108  A    between atoms: _265  and  _268
REMARK  109  A    between atoms: _268  and  _269
REMARK  110  A    between atoms: _274  and  _276
REMARK  111  A    between atoms: _276  and  _277
REMARK  112  A    between atoms: _276  and  _279
REMARK  113  A    between atoms: _279  and  _280
REMARK  114  A    between atoms: _282  and  _284
REMARK  115  A    between atoms: _284  and  _285
REMARK  116  A    between atoms: _284  and  _287
REMARK  117  A    between atoms: _287  and  _288
REMARK  118  A    between atoms: _298  and  _300
REMARK  119  A    between atoms: _300  and  _301
REMARK  120  A    between atoms: _303  and  _305
REMARK  121  A    between atoms: _305  and  _306
REMARK  122  A    between atoms: _305  and  _308
REMARK  123  A    between atoms: _308  and  _309
REMARK  124  A    between atoms: _312  and  _314
REMARK  125  A    between atoms: _314  and  _315
REMARK  126  A    between atoms: _314  and  _317
REMARK  127  A    between atoms: _317  and  _318
REMARK  128  A    between atoms: _321  and  _323
REMARK  129  A    between atoms: _323  and  _324
REMARK  130  A    between atoms: _326  and  _328
REMARK  131  A    between atoms: _328  and  _329
REMARK  132  A    between atoms: _328  and  _331
REMARK  133  A    between atoms: _331  and  _332
REMARK  134  A    between atoms: _335  and  _337
REMARK  135  A    between atoms: _337  and  _338
REMARK  136  A    between atoms: _341  and  _343
REMARK  137  A    between atoms: _343  and  _344
REMARK  138  A    between atoms: _343  and  _346
REMARK  139  A    between atoms: _346  and  _347
REMARK  140  A    between atoms: _350  and  _352
REMARK  141  A    between atoms: _352  and  _353
REMARK  142  A    between atoms: _352  and  _355
REMARK  143  A    between atoms: _355  and  _356
REMARK  144  A    between atoms: _361  and  _362
REMARK  145  A    between atoms: _364  and  _366
REMARK  146  A    between atoms: _366  and  _367
REMARK  147  A    between atoms: _366  and  _369
REMARK  148  A    between atoms: _369  and  _370
REMARK  149  A    between atoms: _375  and  _376
REMARK  150  A    between atoms: _378  and  _380
REMARK  151  A    between atoms: _380  and  _381
REMARK  152  A    between atoms: _380  and  _383
REMARK  153  A    between atoms: _383  and  _384
REMARK  154  A    between atoms: _387  and  _389
REMARK  155  A    between atoms: _389  and  _390
REMARK  156  A    between atoms: _389  and  _392
REMARK  157  A    between atoms: _392  and  _393
REMARK  158  A    between atoms: _393  and  _394
REMARK  159  A    between atoms: _394  and  _395
REMARK  160  A    between atoms: _395  and  _396
REMARK  161  A    between atoms: _400  and  _402
REMARK  162  A    between atoms: _402  and  _403
REMARK  163  A    between atoms: _402  and  _405
REMARK  164  A    between atoms: _405  and  _406
REMARK  165  A    between atoms: _409  and  _411
REMARK  166  A    between atoms: _411  and  _412
REMARK  167  A    between atoms: _411  and  _414
REMARK  168  A    between atoms: _417  and  _419
REMARK  169  A    between atoms: _419  and  _420
REMARK  170  A    between atoms: _419  and  _422
REMARK  171  A    between atoms: _422  and  _423
REMARK  172  A    between atoms: _426  and  _428
REMARK  173  A    between atoms: _428  and  _429
REMARK  174  A    between atoms: _428  and  _431
REMARK  175  A    between atoms: _431  and  _432
REMARK  176  A    between atoms: _434  and  _436
REMARK  177  A    between atoms: _436  and  _437
REMARK  178  A    between atoms: _439  and  _441
REMARK  179  A    between atoms: _441  and  _442
REMARK  180  A    between atoms: _441  and  _444
REMARK  181  A    between atoms: _444  and  _445
REMARK  182  A    between atoms: _448  and  _450
REMARK  183  A    between atoms: _450  and  _451
REMARK  184  A    between atoms: _450  and  _453
REMARK  185  A    between atoms: _453  and  _454
REMARK  186  A    between atoms: _457  and  _459
REMARK  187  A    between atoms: _459  and  _460
REMARK  188  A    between atoms: _459  and  _462
REMARK  189  A    between atoms: _462  and  _463
REMARK  190  A    between atoms: _468  and  _470
REMARK  191  A    between atoms: _470  and  _471
REMARK  192  A    between atoms: _470  and  _473
REMARK  193  A    between atoms: _473  and  _474
REMARK  194  A    between atoms: _474  and  _475
REMARK  195  A    between atoms: _475  and  _476
REMARK  196  A    between atoms: _485  and  _487
REMARK  197  A    between atoms: _487  and  _488
REMARK  198  A    between atoms: _487  and  _490
REMARK  199  A    between atoms: _490  and  _491
REMARK  200  A    between atoms: _493  and  _495
REMARK  201  A    between atoms: _495  and  _496
REMARK  202  A    between atoms: _495  and  _498
REMARK  203  A    between atoms: _498  and  _499
REMARK  204  A    between atoms: _499  and  _500
REMARK  205  A    between atoms: _505  and  _507
REMARK  206  A    between atoms: _507  and  _508
REMARK  207  A    between atoms: _507  and  _510
REMARK  208  A    between atoms: _510  and  _511
REMARK  209  A    between atoms: _513  and  _515
REMARK  210  A    between atoms: _515  and  _516
REMARK  211  A    between atoms: _515  and  _518
REMARK  212  A    between atoms: _518  and  _519
REMARK  213  A    between atoms: _521  and  _523
REMARK  214  A    between atoms: _523  and  _524
REMARK  215  A    between atoms: _523  and  _526
REMARK  216  A    between atoms: _526  and  _527
REMARK  217  A    between atoms: _530  and  _532
REMARK  218  A    between atoms: _532  and  _533
REMARK  219  A    between atoms: _535  and  _537
REMARK  220  A    between atoms: _537  and  _538
REMARK  221  A    between atoms: _537  and  _540
REMARK  222  A    between atoms: _540  and  _541
REMARK  223  A    between atoms: _544  and  _546
REMARK  224  A    between atoms: _546  and  _547
REMARK  225  A    between atoms: _546  and  _549
REMARK  226  A    between atoms: _552  and  _554
REMARK  227  A    between atoms: _554  and  _555
REMARK  228  A    between atoms: _554  and  _557
REMARK  229  A    between atoms: _557  and  _558
REMARK  230  A    between atoms: _558  and  _559
REMARK                            x       y       z     vdW  Elec       q    Type
REMARK                         _______ _______ _______ _____ _____    ______ ____
ROOT
ATOM      1  NE  ARG A   1      -2.161  20.285  28.337  0.00  0.00    -0.265 N 
ATOM      2  HE  ARG A   1      -3.060  20.791  28.203  0.00  0.00    +0.259 HD
ATOM      3  CZ  ARG A   1      -1.637  19.667  27.279  0.00  0.00    +0.342 C 
ATOM      4  NH2 ARG A   1      -0.496  18.990  27.376  0.00  0.00    -0.292 N 
ATOM      5 HH21 ARG A   1       0.001  18.937  28.288  0.00  0.00    +0.255 HD
ATOM      6 HH22 ARG A   1      -0.101  18.514  26.540  0.00  0.00    +0.255 HD
ATOM      7  NH1 ARG A   1      -2.268  19.719  26.114  0.00  0.00    -0.292 N 
ATOM      8 HH11 ARG A   1      -3.165  20.239  26.031  0.00  0.00    +0.255 HD
ATOM      9 HH12 ARG A   1      -1.866  19.240  25.283  0.00  0.00    +0.255 HD
ENDROOT
BRANCH   1  10
ATOM     10  CD  ARG A   1      -1.565  20.305  29.675  0.00  0.00    +0.174 C 
BRANCH  10  11
ATOM     11  CG  ARG A   1      -0.499  21.394  29.818  0.00  0.00    +0.045 C 
BRANCH  11  12
ATOM     12  CB  ARG A   1      -1.084  22.803  29.729  0.00  0.00    +0.029 C 
BRANCH  12  13
ATOM     13  CA  ARG A   1      -0.022  23.903  29.721  0.00  0.00    +0.133 C 
BRANCH  13  14
ATOM     14  N   ARG A   1       0.831  23.824  30.900  0.00  0.00    -0.239 NA
ATOM     15  H   ARG A   1       0.404  23.868  31.847  0.00  0.00    +0.142 HD
ENDBRANCH  13  14
BRANCH  13  16
ATOM     16  C   ARG A   1      -0.634  25.297  29.624  0.00  0.00    +0.224 C 
ATOM     17  O   ARG A   1      -1.215  25.800  30.584  0.00  0.00    -0.287 OA
ENDBRANCH  13  16
ENDBRANCH  12  13
ENDBRANCH  11  12
ENDBRANCH  10  11
ENDBRANCH   1  10
TORSDOF 6
REMARK  Name = ../refined-set-2016/4fsl/4fsl_pocket.pdb
REMARK  230 active torsions:
REMARK  status: ('A' for Active; 'I' for Inactive)
REMARK    1  A    between atoms: _1  and  _3
REMARK    2  A    between atoms: _3  and  _4
REMARK    3  A    between atoms: _3  and  _6
REMARK    4  A    between atoms: _6  and  _7
REMARK    5  A    between atoms: _9  and  _11
REMARK    6  A    between atoms: _11  and  _12
REMARK    7  A    between atoms: _14  and  _16
REMARK    8  A    between atoms: _16  and  _17
REMARK    9  A    between atoms: _16  and  _19
REMARK   10  A    between atoms: _19  and  _20
REMARK   11  A    between atoms: _20  and  _21
REMARK   12  A    between atoms: _26  and  _28
REMARK   13  A    between atoms: _28  and  _29
REMARK   14  A    between atoms: _31  and  _33
REMARK   15  A    between atoms: _33  and  _34
REMARK   16  A    between atoms: _33  and  _36
REMARK   17  A    between atoms: _36  and  _37
REMARK   18  A    between atoms: _42  and  _43
REMARK   19  A    between atoms: _45  and  _47
REMARK   20  A    between atoms: _47  and  _48
REMARK   21  A    between atoms: _47  and  _50
REMARK   22  A    between atoms: _50  and  _51
REMARK   23  A    between atoms: _54  and  _56
REMARK   24  A    between atoms: _56  and  _57
REMARK   25  A    between atoms: _56  and  _59
REMARK   26  A    between atoms: _62  and  _64
REMARK   27  A    between atoms: _64  and  _65
REMARK   28  A    between atoms: _64  and  _67
REMARK   29  A    between atoms: _67  and  _68
REMARK   30  A    between atoms: _71  and  _73
REMARK   31  A    between atoms: _73  and  _74
REMARK   32  A    between atoms: _73  and  _76
REMARK   33  A    between atoms: _76  and  _77
REMARK   34  A    between atoms: _80  and  _82
REMARK   35  A    between atoms: _82  and  _83
REMARK   36  A    between atoms: _85  and  _87
REMARK   37  A    between atoms: _87  and  _88
REMARK   38  A    between atoms: _87  and  _90
REMARK   39  A    between atoms: _90  and  _91
REMARK   40  A    between atoms: _93  and  _95
REMARK   41  A    between atoms: _95  and  _96
REMARK   42  A    between atoms: _95  and  _98
REMARK   43  A    between atoms: _98  and  _99
REMARK   44  A    between atoms: _101  and  _103
REMARK   45  A    between atoms: _103  and  _104
REMARK   46  A    between atoms: _103  and  _106
REMARK   47  A    between atoms: _106  and  _107
REMARK   48  A    between atoms: _112  and  _114
REMARK   49  A    between atoms: _114  and  _115
REMARK   50  A    between atoms: _114  and  _117
REMARK   51  A    between atoms: _117  and  _118
REMARK   52  A    between atoms: _124  and  _126
REMARK   53  A    between atoms: _126  and  _127
REMARK   54  A    between atoms: _126  and  _129
REMARK   55  A    between atoms: _133  and  _134
REMARK   56  A    between atoms: _139  and  _141
REMARK   57  A    between atoms: _141  and  _142
REMARK   58  A    between atoms: _141  and  _144
REMARK   59  A    between atoms: _144  and  _145
REMARK   60  A    between atoms: _150  and  _151
REMARK   61  A    between atoms: _153  and  _155
REMARK   62  A    between atoms: _155  and  _156
REMARK   63  A    between atoms: _155  and  _158
REMARK   64  A    between atoms: _158  and  _159
REMARK   65  A    between atoms: _162  and  _164
REMARK   66  A    between atoms: _164  and  _165
REMARK   67  A    between atoms: _164  and  _167
REMARK   68  A    between atoms: _167  and  _168
REMARK   69  A    between atoms: _168  and  _169
REMARK   70  A    between atoms: _174  and  _176
REMARK   71  A    between atoms: _176  and  _177
REMARK   72  A    between atoms: _179  and  _181
REMARK   73  A    between atoms: _181  and  _182
REMARK   74  A    between atoms: _181  and  _184
REMARK   75  A    between atoms: _184  and  _185
REMARK   76  A    between atoms: _185  and  _186
REMARK   77  A    between atoms: _186  and  _187
REMARK   78  A    between atoms: _187  and  _188
REMARK   79  A    between atoms: _192  and  _194
REMARK   80  A    between atoms: _194  and  _195
REMARK   81  A    between atoms: _194  and  _197
REMARK   82  A    between atoms: _197  and  _198
REMARK   83  A    between atoms: _208  and  _210
REMARK   84  A    between atoms: _210  and  _211
REMARK   85  A    between atoms: _210  and  _213
REMARK   86  A    between atoms: _213  and  _214
REMARK   87  A    between atoms: _217  and  _219
REMARK   88  A    between atoms: _219  and  _220
REMARK   89  A    between atoms: _219  and  _222
REMARK   90  A    between atoms: _222  and  _223
REMARK   91  A    between atoms: _223  and  _224
REMARK   92  A    between atoms: _224  and  _225
REMARK   93  A    between atoms: _225  and  _226
REMARK   94  A    between atoms: _230  and  _232
REMARK   95  A    between atoms: _232  and  _233
REMARK   96  A    between atoms: _232  and  _235
REMARK   97  A    between atoms: _235  and  _236
REMARK   98  A    between atoms: _242  and  _244
REMARK   99  A    between atoms: _244  and  _245
REMARK  100  A    between atoms: _244  and  _247
REMARK  101  A    between atoms: _247  and  _248
REMARK  102  A    between atoms: _254  and  _256
REMARK  103  A    between atoms: _256  and  _257
REMARK  104  A    between atoms: _256  and  _259
REMARK  105  A    between atoms: _259  and  _260
REMARK  106  A    between atoms: _263  and  _265
REMARK  107  A    between atoms: _265  and  _266
REMARK  108  A    between atoms: _265  and  _268
REMARK  109  A    between atoms: _268  and  _269
REMARK  110  A    between atoms: _274  and  _276
REMARK  111  A    between atoms: _276  and  _277
REMARK  112  A    between atoms: _276  and  _279
REMARK  113  A    between atoms: _279  and  _280
REMARK  114  A    between atoms: _282  and  _284
REMARK  115  A    between atoms: _284  and  _285
REMARK  116  A    between atoms: _284  and  _287
REMARK  117  A    between atoms: _287  and  _288
REMARK  118  A    between atoms: _298  and  _300
REMARK  119  A    between atoms: _300  and  _301
REMARK  120  A    between atoms: _303  and  _305
REMARK  121  A    between atoms: _305  and  _306
REMARK  122  A    between atoms: _305  and  _308
REMARK  123  A    between atoms: _308  and  _309
REMARK  124  A    between atoms: _312  and  _314
REMARK  125  A    between atoms: _314  and  _315
REMARK  126  A    between atoms: _314  and  _317
REMARK  127  A    between atoms: _317  and  _318
REMARK  128  A    between atoms: _321  and  _323
REMARK  129  A    between atoms: _323  and  _324
REMARK  130  A    between atoms: _326  and  _328
REMARK  131  A    between atoms: _328  and  _329
REMARK  132  A    between atoms: _328  and  _331
REMARK  133  A    between atoms: _331  and  _332
REMARK  134  A    between atoms: _335  and  _337
REMARK  135  A    between atoms: _337  and  _338
REMARK  136  A    between atoms: _341  and  _343
REMARK  137  A    between atoms: _343  and  _344
REMARK  138  A    between atoms: _343  and  _346
REMARK  139  A    between atoms: _346  and  _347
REMARK  140  A    between atoms: _350  and  _352
REMARK  141  A    between atoms: _352  and  _353
REMARK  142  A    between atoms: _352  and  _355
REMARK  143  A    between atoms: _355  and  _356
REMARK  144  A    between atoms: _361  and  _362
REMARK  145  A    between atoms: _364  and  _366
REMARK  146  A    between atoms: _366  and  _367
REMARK  147  A    between atoms: _366  and  _369
REMARK  148  A    between atoms: _369  and  _370
REMARK  149  A    between atoms: _375  and  _376
REMARK  150  A    between atoms: _378  and  _380
REMARK  151  A    between atoms: _380  and  _381
REMARK  152  A    between atoms: _380  and  _383
REMARK  153  A    between atoms: _383  and  _384
REMARK  154  A    between atoms: _387  and  _389
REMARK  155  A    between atoms: _389  and  _390
REMARK  156  A    between atoms: _389  and  _392
REMARK  157  A    between atoms: _392  and  _393
REMARK  158  A    between atoms: _393  and  _394
REMARK  159  A    between atoms: _394  and  _395
REMARK  160  A    between atoms: _395  and  _396
REMARK  161  A    between atoms: _400  and  _402
REMARK  162  A    between atoms: _402  and  _403
REMARK  163  A    between atoms: _402  and  _405
REMARK  164  A    between atoms: _405  and  _406
REMARK  165  A    between atoms: _409  and  _411
REMARK  166  A    between atoms: _411  and  _412
REMARK  167  A    between atoms: _411  and  _414
REMARK  168  A    between atoms: _417  and  _419
REMARK  169  A    between atoms: _419  and  _420
REMARK  170  A    between atoms: _419  and  _422
REMARK  171  A    between atoms: _422  and  _423
REMARK  172  A    between atoms: _426  and  _428
REMARK  173  A    between atoms: _428  and  _429
REMARK  174  A    between atoms: _428  and  _431
REMARK  175  A    between atoms: _431  and  _432
REMARK  176  A    between atoms: _434  and  _436
REMARK  177  A    between atoms: _436  and  _437
REMARK  178  A    between atoms: _439  and  _441
REMARK  179  A    between atoms: _441  and  _442
REMARK  180  A    between atoms: _441  and  _444
REMARK  181  A    between atoms: _444  and  _445
REMARK  182  A    between atoms: _448  and  _450
REMARK  183  A    between atoms: _450  and  _451
REMARK  184  A    between atoms: _450  and  _453
REMARK  185  A    between atoms: _453  and  _454
REMARK  186  A    between atoms: _457  and  _459
REMARK  187  A    between atoms: _459  and  _460
REMARK  188  A    between atoms: _459  and  _462
REMARK  189  A    between atoms: _462  and  _463
REMARK  190  A    between atoms: _468  and  _470
REMARK  191  A    between atoms: _470  and  _471
REMARK  192  A    between atoms: _470  and  _473
REMARK  193  A    between atoms: _473  and  _474
REMARK  194  A    between atoms: _474  and  _475
REMARK  195  A    between atoms: _475  and  _476
REMARK  196  A    between atoms: _485  and  _487
REMARK  197  A    between atoms: _487  and  _488
REMARK  198  A    between atoms: _487  and  _490
REMARK  199  A    between atoms: _490  and  _491
REMARK  200  A    between atoms: _493  and  _495
REMARK  201  A    between atoms: _495  and  _496
REMARK  202  A    between atoms: _495  and  _498
REMARK  203  A    between atoms: _498  and  _499
REMARK  204  A    between atoms: _499  and  _500
REMARK  205  A    between atoms: _505  and  _507
REMARK  206  A    between atoms: _507  and  _508
REMARK  207  A    between atoms: _507  and  _510
REMARK  208  A    between atoms: _510  and  _511
REMARK  209  A    between atoms: _513  and  _515
REMARK  210  A    between atoms: _515  and  _516
REMARK  211  A    between atoms: _515  and  _518
REMARK  212  A    between atoms: _518  and  _519
REMARK  213  A    between atoms: _521  and  _523
REMARK  214  A    between atoms: _523  and  _524
REMARK  215  A    between atoms: _523  and  _526
REMARK  216  A    between atoms: _526  and  _527
REMARK  217  A    between atoms: _530  and  _532
REMARK  218  A    between atoms: _532  and  _533
REMARK  219  A    between atoms: _535  and  _537
REMARK  220  A    between atoms: _537  and  _538
REMARK  221  A    between atoms: _537  and  _540
REMARK  222  A    between atoms: _540  and  _541
REMARK  223  A    between atoms: _544  and  _546
REMARK  224  A    between atoms: _546  and  _547
REMARK  225  A    between atoms: _546  and  _549
REMARK  226  A    between atoms: _552  and  _554
REMARK  227  A    between atoms: _554  and  _555
REMARK  228  A    between atoms: _554  and  _557
REMARK  229  A    between atoms: _557  and  _558
REMARK  230  A    between atoms: _558  and  _559
REMARK                            x       y       z     vdW  Elec       q    Type
REMARK                         _______ _______ _______ _____ _____    ______ ____
ROOT
ATOM      1  C   SER A   4      -8.139  23.732  25.975  0.00  0.00    +0.243 C 
ATOM      2  N   THR A   5      -7.619  23.492  27.181  0.00  0.00    -0.295 N 
ATOM      3  H   THR A   5      -6.590  23.365  27.265  0.00  0.00    +0.150 HD
ATOM      4  O   SER A   4      -9.343  23.939  25.780  0.00  0.00    -0.273 OA
ENDROOT
BRANCH   2   5
ATOM      5  CA  THR A   5      -8.442  23.400  28.392  0.00  0.00    +0.176 C 
BRANCH   5   6
ATOM      6  C   THR A   5      -7.973  24.325  29.518  0.00  0.00    +0.243 C 
ATOM      7  O   THR A   5      -8.265  24.079  30.691  0.00  0.00    -0.273 OA
ATOM      8  N   GLY A   6      -7.258  25.389  29.156  0.00  0.00    -0.295 N 
ATOM      9  H   GLY A   6      -6.978  25.490  28.160  0.00  0.00    +0.150 HD
BRANCH   8  10
ATOM     10  CA  GLY A   6      -6.852  26.424  30.114  0.00  0.00    +0.176 C 
BRANCH  10  11
ATOM     11  C   GLY A   6      -5.395  26.360  30.529  0.00  0.00    +0.243 C 
ATOM     12  N   THR A   7      -5.022  27.178  31.510  0.00  0.00    -0.295 N 
ATOM     13  H   THR A   7      -5.698  27.878  31.876  0.00  0.00    +0.150 HD
ATOM     14  O   GLY A   6      -4.615  25.589  29.972  0.00  0.00    -0.273 OA
BRANCH  12  15
ATOM     15  CA  THR A   7      -3.682  27.109  32.080  0.00  0.00    +0.176 C 
BRANCH  15  16
ATOM     16  C   THR A   7      -3.591  25.986  33.107  0.00  0.00    +0.243 C 
ATOM     17  O   THR A   7      -4.354  25.943  34.070  0.00  0.00    -0.273 OA
ATOM     18  N   VAL A   8      -2.653  25.074  32.872  0.00  0.00    -0.297 N 
ATOM     19  H   VAL A   8      -2.044  25.186  32.036  0.00  0.00    +0.150 HD
BRANCH  18  20
ATOM     20  CA  VAL A   8      -2.446  23.928  33.737  0.00  0.00    +0.149 C 
BRANCH  20  21
ATOM     21  C   VAL A   8      -1.038  23.986  34.315  0.00  0.00    +0.241 C 
ATOM     22  N   MET A   9      -0.956  24.309  35.599  0.00  0.00    -0.298 N 
ATOM     23  H   MET A   9      -1.825  24.555  36.114  0.00  0.00    +0.150 HD
ATOM     24  O   VAL A   8      -0.051  23.767  33.608  0.00  0.00    -0.273 OA
BRANCH  22  25
ATOM     25  CA  MET A   9       0.318  24.330  36.310  0.00  0.00    +0.138 C 
BRANCH  25  26
ATOM     26  C   MET A   9       0.684  22.904  36.706  0.00  0.00    +0.227 C 
ATOM     27  O   MET A   9       0.294  22.419  37.769  0.00  0.00    -0.286 OA
ENDBRANCH  25  26
BRANCH  25  28
ATOM     28  CB  MET A   9       0.237  25.243  37.539  0.00  0.00    +0.039 C 
BRANCH  28  29
ATOM     29  CG  MET A   9       0.057  26.714  37.201  0.00  0.00    +0.060 C 
BRANCH  29  30
ATOM     30  SD  MET A   9      -0.200  27.785  38.636  0.00  0.00    -0.139 S 
ATOM     31  CE  MET A   9       1.338  27.522  39.512  0.00  0.00    +0.069 C 
ENDBRANCH  29  30
ENDBRANCH  28  29
ENDBRANCH  25  28
ENDBRANCH  22  25
ENDBRANCH  20  21
BRANCH  20  32
ATOM     32  CB  VAL A   8      -2.661  22.605  32.978  0.00  0.00    +0.027 C 
ATOM     33  CG2 VAL A   8      -2.604  21.429  33.935  0.00  0.00    +0.002 C 
ATOM     34  CG1 VAL A   8      -3.987  22.622  32.239  0.00  0.00    +0.002 C 
ENDBRANCH  20  32
ENDBRANCH  18  20
ENDBRANCH  15  16
BRANCH  15  35
ATOM     35  CB  THR A   7      -3.227  28.441  32.690  0.00  0.00    +0.137 C 
ATOM     36  CG2 THR A   7      -1.883  28.281  33.398  0.00  0.00    +0.034 C 
BRANCH  35  37
ATOM     37  OG1 THR A   7      -3.082  29.404  31.646  0.00  0.00    -0.382 OA
ATOM     38  HG1 THR A   7      -2.788  30.267  32.033  0.00  0.00    +0.210 HD
ENDBRANCH  35  37
ENDBRANCH  15  35
ENDBRANCH  12  15
ENDBRANCH  10  11
ENDBRANCH   8  10
ENDBRANCH   5   6
BRANCH   5  39
ATOM     39  CB  THR A   5      -8.550  21.933  28.918  0.00  0.00    +0.137 C 
ATOM     40  CG2 THR A   5      -9.392  21.076  27.972  0.00  0.00    +0.034 C 
BRANCH  39  41
ATOM     41  OG1 THR A   5      -7.242  21.357  29.054  0.00  0.00    -0.382 OA
ATOM     42  HG1 THR A   5      -7.325  20.429  29.388  0.00  0.00    +0.210 HD
ENDBRANCH  39  41
ENDBRANCH   5  39
ENDBRANCH   2   5
BRANCH   1  43
ATOM     43  CA  SER A   4      -7.150  23.752  24.814  0.00  0.00    +0.178 C 
BRANCH  43  45
ATOM     44  C   SER A   3      -4.798  24.238  25.204  0.00  0.00    +0.243 C 
ATOM     45  N   SER A   4      -5.811  23.380  25.269  0.00  0.00    -0.295 N 
ATOM     46  H   SER A   4      -5.648  22.426  25.651  0.00  0.00    +0.150 HD
ATOM     47  O   SER A   3      -4.876  25.340  24.639  0.00  0.00    -0.273 OA
BRANCH  44  48
ATOM     48  CA  SER A   3      -3.503  23.793  25.873  0.00  0.00    +0.178 C 
BRANCH  48  50
ATOM     49  C   GLN A   2      -1.418  23.553  24.633  0.00  0.00    +0.241 C 
ATOM     50  N   SER A   3      -2.347  24.332  25.173  0.00  0.00    -0.295 N 
ATOM     51  H   SER A   3      -2.245  25.364  25.093  0.00  0.00    +0.150 HD
ATOM     52  O   GLN A   2      -1.491  22.326  24.627  0.00  0.00    -0.273 OA
BRANCH  49  53
ATOM     53  CA  GLN A   2      -0.217  24.267  24.021  0.00  0.00    +0.149 C 
BRANCH  53  56
ATOM     54  C   SER A   1       1.400  23.575  25.711  0.00  0.00    +0.241 C 
ATOM     55  O   SER A   1       0.911  24.293  26.586  0.00  0.00    -0.274 OA
ATOM     56  N   GLN A   2       0.994  23.581  24.445  0.00  0.00    -0.297 N 
ATOM     57  H   GLN A   2       1.562  23.078  23.733  0.00  0.00    +0.150 HD
BRANCH  54  58
ATOM     58  CA  SER A   1       2.538  22.611  26.028  0.00  0.00    +0.174 C 
BRANCH  58  59
ATOM     59  N   SER A   1       3.428  23.099  27.077  0.00  0.00    -0.236 NA
ATOM     60  H   SER A   1       3.042  23.263  28.029  0.00  0.00    +0.142 HD
ENDBRANCH  58  59
BRANCH  58  61
ATOM     61  CB  SER A   1       1.956  21.255  26.418  0.00  0.00    +0.163 C 
BRANCH  61  62
ATOM     62  OG  SER A   1       2.966  20.269  26.456  0.00  0.00    -0.380 OA
ATOM     63  H   SER A   1       3.385  20.192  25.562  0.00  0.00    +0.211 HD
ENDBRANCH  61  62
ENDBRANCH  58  61
ENDBRANCH  54  58
ENDBRANCH  53  56
BRANCH  53  64
ATOM     64  CB  GLN A   2      -0.319  24.271  22.495  0.00  0.00    +0.039 C 
BRANCH  64  65
ATOM     65  CG  GLN A   2      -1.415  25.168  21.938  0.00  0.00    +0.087 C 
BRANCH  65  66
ATOM     66  CD  GLN A   2      -1.371  25.288  20.423  0.00  0.00    +0.219 C 
ATOM     67  NE2 GLN A   2      -2.533  25.466  19.819  0.00  0.00    -0.329 N 
ATOM     68 HE21 GLN A   2      -3.408  25.512  20.379  0.00  0.00    +0.145 HD
ATOM     69 HE22 GLN A   2      -2.572  25.560  18.784  0.00  0.00    +0.145 HD
ATOM     70  OE1 GLN A   2      -0.307  25.227  19.805  0.00  0.00    -0.275 OA
ENDBRANCH  65  66
ENDBRANCH  64  65
ENDBRANCH  53  64
ENDBRANCH  49  53
ENDBRANCH  48  50
BRANCH  48  71
ATOM     71  CB  SER A   3      -3.484  24.246  27.335  0.00  0.00    +0.166 C 
BRANCH  71  72
ATOM     72  OG  SER A   3      -4.619  23.778  28.043  0.00  0.00    -0.380 OA
ATOM     73  H   SER A   3      -4.573  24.089  28.982  0.00  0.00    +0.211 HD
ENDBRANCH  71  72
ENDBRANCH  48  71
ENDBRANCH  44  48
ENDBRANCH  43  45
BRANCH  43  74
ATOM     74  CB  SER A   4      -7.619  22.838  23.674  0.00  0.00    +0.166 C 
BRANCH  74  75
ATOM     75  OG  SER A   4      -7.793  21.507  24.123  0.00  0.00    -0.380 OA
ATOM     76  H   SER A   4      -6.933  21.162  24.471  0.00  0.00    +0.211 HD
ENDBRANCH  74  75
ENDBRANCH  43  74
ENDBRANCH   1  43
TORSDOF 35
REMARK  Name = ../refined-set-2016/4fsl/4fsl_pocket.pdb
REMARK  230 active torsions:
REMARK  status: ('A' for Active; 'I' for Inactive)
REMARK    1  A    between atoms: _1  and  _3
REMARK    2  A    between atoms: _3  and  _4
REMARK    3  A    between atoms: _3  and  _6
REMARK    4  A    between atoms: _6  and  _7
REMARK    5  A    between atoms: _9  and  _11
REMARK    6  A    between atoms: _11  and  _12
REMARK    7  A    between atoms: _14  and  _16
REMARK    8  A    between atoms: _16  and  _17
REMARK    9  A    between atoms: _16  and  _19
REMARK   10  A    between atoms: _19  and  _20
REMARK   11  A    between atoms: _20  and  _21
REMARK   12  A    between atoms: _26  and  _28
REMARK   13  A    between atoms: _28  and  _29
REMARK   14  A    between atoms: _31  and  _33
REMARK   15  A    between atoms: _33  and  _34
REMARK   16  A    between atoms: _33  and  _36
REMARK   17  A    between atoms: _36  and  _37
REMARK   18  A    between atoms: _42  and  _43
REMARK   19  A    between atoms: _45  and  _47
REMARK   20  A    between atoms: _47  and  _48
REMARK   21  A    between atoms: _47  and  _50
REMARK   22  A    between atoms: _50  and  _51
REMARK   23  A    between atoms: _54  and  _56
REMARK   24  A    between atoms: _56  and  _57
REMARK   25  A    between atoms: _56  and  _59
REMARK   26  A    between atoms: _62  and  _64
REMARK   27  A    between atoms: _64  and  _65
REMARK   28  A    between atoms: _64  and  _67
REMARK   29  A    between atoms: _67  and  _68
REMARK   30  A    between atoms: _71  and  _73
REMARK   31  A    between atoms: _73  and  _74
REMARK   32  A    between atoms: _73  and  _76
REMARK   33  A    between atoms: _76  and  _77
REMARK   34  A    between atoms: _80  and  _82
REMARK   35  A    between atoms: _82  and  _83
REMARK   36  A    between atoms: _85  and  _87
REMARK   37  A    between atoms: _87  and  _88
REMARK   38  A    between atoms: _87  and  _90
REMARK   39  A    between atoms: _90  and  _91
REMARK   40  A    between atoms: _93  and  _95
REMARK   41  A    between atoms: _95  and  _96
REMARK   42  A    between atoms: _95  and  _98
REMARK   43  A    between atoms: _98  and  _99
REMARK   44  A    between atoms: _101  and  _103
REMARK   45  A    between atoms: _103  and  _104
REMARK   46  A    between atoms: _103  and  _106
REMARK   47  A    between atoms: _106  and  _107
REMARK   48  A    between atoms: _112  and  _114
REMARK   49  A    between atoms: _114  and  _115
REMARK   50  A    between atoms: _114  and  _117
REMARK   51  A    between atoms: _117  and  _118
REMARK   52  A    between atoms: _124  and  _126
REMARK   53  A    between atoms: _126  and  _127
REMARK   54  A    between atoms: _126  and  _129
REMARK   55  A    between atoms: _133  and  _134
REMARK   56  A    between atoms: _139  and  _141
REMARK   57  A    between atoms: _141  and  _142
REMARK   58  A    between atoms: _141  and  _144
REMARK   59  A    between atoms: _144  and  _145
REMARK   60  A    between atoms: _150  and  _151
REMARK   61  A    between atoms: _153  and  _155
REMARK   62  A    between atoms: _155  and  _156
REMARK   63  A    between atoms: _155  and  _158
REMARK   64  A    between atoms: _158  and  _159
REMARK   65  A    between atoms: _162  and  _164
REMARK   66  A    between atoms: _164  and  _165
REMARK   67  A    between atoms: _164  and  _167
REMARK   68  A    between atoms: _167  and  _168
REMARK   69  A    between atoms: _168  and  _169
REMARK   70  A    between atoms: _174  and  _176
REMARK   71  A    between atoms: _176  and  _177
REMARK   72  A    between atoms: _179  and  _181
REMARK   73  A    between atoms: _181  and  _182
REMARK   74  A    between atoms: _181  and  _184
REMARK   75  A    between atoms: _184  and  _185
REMARK   76  A    between atoms: _185  and  _186
REMARK   77  A    between atoms: _186  and  _187
REMARK   78  A    between atoms: _187  and  _188
REMARK   79  A    between atoms: _192  and  _194
REMARK   80  A    between atoms: _194  and  _195
REMARK   81  A    between atoms: _194  and  _197
REMARK   82  A    between atoms: _197  and  _198
REMARK   83  A    between atoms: _208  and  _210
REMARK   84  A    between atoms: _210  and  _211
REMARK   85  A    between atoms: _210  and  _213
REMARK   86  A    between atoms: _213  and  _214
REMARK   87  A    between atoms: _217  and  _219
REMARK   88  A    between atoms: _219  and  _220
REMARK   89  A    between atoms: _219  and  _222
REMARK   90  A    between atoms: _222  and  _223
REMARK   91  A    between atoms: _223  and  _224
REMARK   92  A    between atoms: _224  and  _225
REMARK   93  A    between atoms: _225  and  _226
REMARK   94  A    between atoms: _230  and  _232
REMARK   95  A    between atoms: _232  and  _233
REMARK   96  A    between atoms: _232  and  _235
REMARK   97  A    between atoms: _235  and  _236
REMARK   98  A    between atoms: _242  and  _244
REMARK   99  A    between atoms: _244  and  _245
REMARK  100  A    between atoms: _244  and  _247
REMARK  101  A    between atoms: _247  and  _248
REMARK  102  A    between atoms: _254  and  _256
REMARK  103  A    between atoms: _256  and  _257
REMARK  104  A    between atoms: _256  and  _259
REMARK  105  A    between atoms: _259  and  _260
REMARK  106  A    between atoms: _263  and  _265
REMARK  107  A    between atoms: _265  and  _266
REMARK  108  A    between atoms: _265  and  _268
REMARK  109  A    between atoms: _268  and  _269
REMARK  110  A    between atoms: _274  and  _276
REMARK  111  A    between atoms: _276  and  _277
REMARK  112  A    between atoms: _276  and  _279
REMARK  113  A    between atoms: _279  and  _280
REMARK  114  A    between atoms: _282  and  _284
REMARK  115  A    between atoms: _284  and  _285
REMARK  116  A    between atoms: _284  and  _287
REMARK  117  A    between atoms: _287  and  _288
REMARK  118  A    between atoms: _298  and  _300
REMARK  119  A    between atoms: _300  and  _301
REMARK  120  A    between atoms: _303  and  _305
REMARK  121  A    between atoms: _305  and  _306
REMARK  122  A    between atoms: _305  and  _308
REMARK  123  A    between atoms: _308  and  _309
REMARK  124  A    between atoms: _312  and  _314
REMARK  125  A    between atoms: _314  and  _315
REMARK  126  A    between atoms: _314  and  _317
REMARK  127  A    between atoms: _317  and  _318
REMARK  128  A    between atoms: _321  and  _323
REMARK  129  A    between atoms: _323  and  _324
REMARK  130  A    between atoms: _326  and  _328
REMARK  131  A    between atoms: _328  and  _329
REMARK  132  A    between atoms: _328  and  _331
REMARK  133  A    between atoms: _331  and  _332
REMARK  134  A    between atoms: _335  and  _337
REMARK  135  A    between atoms: _337  and  _338
REMARK  136  A    between atoms: _341  and  _343
REMARK  137  A    between atoms: _343  and  _344
REMARK  138  A    between atoms: _343  and  _346
REMARK  139  A    between atoms: _346  and  _347
REMARK  140  A    between atoms: _350  and  _352
REMARK  141  A    between atoms: _352  and  _353
REMARK  142  A    between atoms: _352  and  _355
REMARK  143  A    between atoms: _355  and  _356
REMARK  144  A    between atoms: _361  and  _362
REMARK  145  A    between atoms: _364  and  _366
REMARK  146  A    between atoms: _366  and  _367
REMARK  147  A    between atoms: _366  and  _369
REMARK  148  A    between atoms: _369  and  _370
REMARK  149  A    between atoms: _375  and  _376
REMARK  150  A    between atoms: _378  and  _380
REMARK  151  A    between atoms: _380  and  _381
REMARK  152  A    between atoms: _380  and  _383
REMARK  153  A    between atoms: _383  and  _384
REMARK  154  A    between atoms: _387  and  _389
REMARK  155  A    between atoms: _389  and  _390
REMARK  156  A    between atoms: _389  and  _392
REMARK  157  A    between atoms: _392  and  _393
REMARK  158  A    between atoms: _393  and  _394
REMARK  159  A    between atoms: _394  and  _395
REMARK  160  A    between atoms: _395  and  _396
REMARK  161  A    between atoms: _400  and  _402
REMARK  162  A    between atoms: _402  and  _403
REMARK  163  A    between atoms: _402  and  _405
REMARK  164  A    between atoms: _405  and  _406
REMARK  165  A    between atoms: _409  and  _411
REMARK  166  A    between atoms: _411  and  _412
REMARK  167  A    between atoms: _411  and  _414
REMARK  168  A    between atoms: _417  and  _419
REMARK  169  A    between atoms: _419  and  _420
REMARK  170  A    between atoms: _419  and  _422
REMARK  171  A    between atoms: _422  and  _423
REMARK  172  A    between atoms: _426  and  _428
REMARK  173  A    between atoms: _428  and  _429
REMARK  174  A    between atoms: _428  and  _431
REMARK  175  A    between atoms: _431  and  _432
REMARK  176  A    between atoms: _434  and  _436
REMARK  177  A    between atoms: _436  and  _437
REMARK  178  A    between atoms: _439  and  _441
REMARK  179  A    between atoms: _441  and  _442
REMARK  180  A    between atoms: _441  and  _444
REMARK  181  A    between atoms: _444  and  _445
REMARK  182  A    between atoms: _448  and  _450
REMARK  183  A    between atoms: _450  and  _451
REMARK  184  A    between atoms: _450  and  _453
REMARK  185  A    between atoms: _453  and  _454
REMARK  186  A    between atoms: _457  and  _459
REMARK  187  A    between atoms: _459  and  _460
REMARK  188  A    between atoms: _459  and  _462
REMARK  189  A    between atoms: _462  and  _463
REMARK  190  A    between atoms: _468  and  _470
REMARK  191  A    between atoms: _470  and  _471
REMARK  192  A    between atoms: _470  and  _473
REMARK  193  A    between atoms: _473  and  _474
REMARK  194  A    between atoms: _474  and  _475
REMARK  195  A    between atoms: _475  and  _476
REMARK  196  A    between atoms: _485  and  _487
REMARK  197  A    between atoms: _487  and  _488
REMARK  198  A    between atoms: _487  and  _490
REMARK  199  A    between atoms: _490  and  _491
REMARK  200  A    between atoms: _493  and  _495
REMARK  201  A    between atoms: _495  and  _496
REMARK  202  A    between atoms: _495  and  _498
REMARK  203  A    between atoms: _498  and  _499
REMARK  204  A    between atoms: _499  and  _500
REMARK  205  A    between atoms: _505  and  _507
REMARK  206  A    between atoms: _507  and  _508
REMARK  207  A    between atoms: _507  and  _510
REMARK  208  A    between atoms: _510  and  _511
REMARK  209  A    between atoms: _513  and  _515
REMARK  210  A    between atoms: _515  and  _516
REMARK  211  A    between atoms: _515  and  _518
REMARK  212  A    between atoms: _518  and  _519
REMARK  213  A    between atoms: _521  and  _523
REMARK  214  A    between atoms: _523  and  _524
REMARK  215  A    between atoms: _523  and  _526
REMARK  216  A    between atoms: _526  and  _527
REMARK  217  A    between atoms: _530  and  _532
REMARK  218  A    between atoms: _532  and  _533
REMARK  219  A    between atoms: _535  and  _537
REMARK  220  A    between atoms: _537  and  _538
REMARK  221  A    between atoms: _537  and  _540
REMARK  222  A    between atoms: _540  and  _541
REMARK  223  A    between atoms: _544  and  _546
REMARK  224  A    between atoms: _546  and  _547
REMARK  225  A    between atoms: _546  and  _549
REMARK  226  A    between atoms: _552  and  _554
REMARK  227  A    between atoms: _554  and  _555
REMARK  228  A    between atoms: _554  and  _557
REMARK  229  A    between atoms: _557  and  _558
REMARK  230  A    between atoms: _558  and  _559
REMARK                            x       y       z     vdW  Elec       q    Type
REMARK                         _______ _______ _______ _____ _____    ______ ____
ROOT
ATOM      1  O   HOH     1       1.462  12.571  35.349  0.00  0.00    +0.000 OA
ENDROOT
TORSDOF 0
REMARK  Name = ../refined-set-2016/4fsl/4fsl_pocket.pdb
REMARK  230 active torsions:
REMARK  status: ('A' for Active; 'I' for Inactive)
REMARK    1  A    between atoms: _1  and  _3
REMARK    2  A    between atoms: _3  and  _4
REMARK    3  A    between atoms: _3  and  _6
REMARK    4  A    between atoms: _6  and  _7
REMARK    5  A    between atoms: _9  and  _11
REMARK    6  A    between atoms: _11  and  _12
REMARK    7  A    between atoms: _14  and  _16
REMARK    8  A    between atoms: _16  and  _17
REMARK    9  A    between atoms: _16  and  _19
REMARK   10  A    between atoms: _19  and  _20
REMARK   11  A    between atoms: _20  and  _21
REMARK   12  A    between atoms: _26  and  _28
REMARK   13  A    between atoms: _28  and  _29
REMARK   14  A    between atoms: _31  and  _33
REMARK   15  A    between atoms: _33  and  _34
REMARK   16  A    between atoms: _33  and  _36
REMARK   17  A    between atoms: _36  and  _37
REMARK   18  A    between atoms: _42  and  _43
REMARK   19  A    between atoms: _45  and  _47
REMARK   20  A    between atoms: _47  and  _48
REMARK   21  A    between atoms: _47  and  _50
REMARK   22  A    between atoms: _50  and  _51
REMARK   23  A    between atoms: _54  and  _56
REMARK   24  A    between atoms: _56  and  _57
REMARK   25  A    between atoms: _56  and  _59
REMARK   26  A    between atoms: _62  and  _64
REMARK   27  A    between atoms: _64  and  _65
REMARK   28  A    between atoms: _64  and  _67
REMARK   29  A    between atoms: _67  and  _68
REMARK   30  A    between atoms: _71  and  _73
REMARK   31  A    between atoms: _73  and  _74
REMARK   32  A    between atoms: _73  and  _76
REMARK   33  A    between atoms: _76  and  _77
REMARK   34  A    between atoms: _80  and  _82
REMARK   35  A    between atoms: _82  and  _83
REMARK   36  A    between atoms: _85  and  _87
REMARK   37  A    between atoms: _87  and  _88
REMARK   38  A    between atoms: _87  and  _90
REMARK   39  A    between atoms: _90  and  _91
REMARK   40  A    between atoms: _93  and  _95
REMARK   41  A    between atoms: _95  and  _96
REMARK   42  A    between atoms: _95  and  _98
REMARK   43  A    between atoms: _98  and  _99
REMARK   44  A    between atoms: _101  and  _103
REMARK   45  A    between atoms: _103  and  _104
REMARK   46  A    between atoms: _103  and  _106
REMARK   47  A    between atoms: _106  and  _107
REMARK   48  A    between atoms: _112  and  _114
REMARK   49  A    between atoms: _114  and  _115
REMARK   50  A    between atoms: _114  and  _117
REMARK   51  A    between atoms: _117  and  _118
REMARK   52  A    between atoms: _124  and  _126
REMARK   53  A    between atoms: _126  and  _127
REMARK   54  A    between atoms: _126  and  _129
REMARK   55  A    between atoms: _133  and  _134
REMARK   56  A    between atoms: _139  and  _141
REMARK   57  A    between atoms: _141  and  _142
REMARK   58  A    between atoms: _141  and  _144
REMARK   59  A    between atoms: _144  and  _145
REMARK   60  A    between atoms: _150  and  _151
REMARK   61  A    between atoms: _153  and  _155
REMARK   62  A    between atoms: _155  and  _156
REMARK   63  A    between atoms: _155  and  _158
REMARK   64  A    between atoms: _158  and  _159
REMARK   65  A    between atoms: _162  and  _164
REMARK   66  A    between atoms: _164  and  _165
REMARK   67  A    between atoms: _164  and  _167
REMARK   68  A    between atoms: _167  and  _168
REMARK   69  A    between atoms: _168  and  _169
REMARK   70  A    between atoms: _174  and  _176
REMARK   71  A    between atoms: _176  and  _177
REMARK   72  A    between atoms: _179  and  _181
REMARK   73  A    between atoms: _181  and  _182
REMARK   74  A    between atoms: _181  and  _184
REMARK   75  A    between atoms: _184  and  _185
REMARK   76  A    between atoms: _185  and  _186
REMARK   77  A    between atoms: _186  and  _187
REMARK   78  A    between atoms: _187  and  _188
REMARK   79  A    between atoms: _192  and  _194
REMARK   80  A    between atoms: _194  and  _195
REMARK   81  A    between atoms: _194  and  _197
REMARK   82  A    between atoms: _197  and  _198
REMARK   83  A    between atoms: _208  and  _210
REMARK   84  A    between atoms: _210  and  _211
REMARK   85  A    between atoms: _210  and  _213
REMARK   86  A    between atoms: _213  and  _214
REMARK   87  A    between atoms: _217  and  _219
REMARK   88  A    between atoms: _219  and  _220
REMARK   89  A    between atoms: _219  and  _222
REMARK   90  A    between atoms: _222  and  _223
REMARK   91  A    between atoms: _223  and  _224
REMARK   92  A    between atoms: _224  and  _225
REMARK   93  A    between atoms: _225  and  _226
REMARK   94  A    between atoms: _230  and  _232
REMARK   95  A    between atoms: _232  and  _233
REMARK   96  A    between atoms: _232  and  _235
REMARK   97  A    between atoms: _235  and  _236
REMARK   98  A    between atoms: _242  and  _244
REMARK   99  A    between atoms: _244  and  _245
REMARK  100  A    between atoms: _244  and  _247
REMARK  101  A    between atoms: _247  and  _248
REMARK  102  A    between atoms: _254  and  _256
REMARK  103  A    between atoms: _256  and  _257
REMARK  104  A    between atoms: _256  and  _259
REMARK  105  A    between atoms: _259  and  _260
REMARK  106  A    between atoms: _263  and  _265
REMARK  107  A    between atoms: _265  and  _266
REMARK  108  A    between atoms: _265  and  _268
REMARK  109  A    between atoms: _268  and  _269
REMARK  110  A    between atoms: _274  and  _276
REMARK  111  A    between atoms: _276  and  _277
REMARK  112  A    between atoms: _276  and  _279
REMARK  113  A    between atoms: _279  and  _280
REMARK  114  A    between atoms: _282  and  _284
REMARK  115  A    between atoms: _284  and  _285
REMARK  116  A    between atoms: _284  and  _287
REMARK  117  A    between atoms: _287  and  _288
REMARK  118  A    between atoms: _298  and  _300
REMARK  119  A    between atoms: _300  and  _301
REMARK  120  A    between atoms: _303  and  _305
REMARK  121  A    between atoms: _305  and  _306
REMARK  122  A    between atoms: _305  and  _308
REMARK  123  A    between atoms: _308  and  _309
REMARK  124  A    between atoms: _312  and  _314
REMARK  125  A    between atoms: _314  and  _315
REMARK  126  A    between atoms: _314  and  _317
REMARK  127  A    between atoms: _317  and  _318
REMARK  128  A    between atoms: _321  and  _323
REMARK  129  A    between atoms: _323  and  _324
REMARK  130  A    between atoms: _326  and  _328
REMARK  131  A    between atoms: _328  and  _329
REMARK  132  A    between atoms: _328  and  _331
REMARK  133  A    between atoms: _331  and  _332
REMARK  134  A    between atoms: _335  and  _337
REMARK  135  A    between atoms: _337  and  _338
REMARK  136  A    between atoms: _341  and  _343
REMARK  137  A    between atoms: _343  and  _344
REMARK  138  A    between atoms: _343  and  _346
REMARK  139  A    between atoms: _346  and  _347
REMARK  140  A    between atoms: _350  and  _352
REMARK  141  A    between atoms: _352  and  _353
REMARK  142  A    between atoms: _352  and  _355
REMARK  143  A    between atoms: _355  and  _356
REMARK  144  A    between atoms: _361  and  _362
REMARK  145  A    between atoms: _364  and  _366
REMARK  146  A    between atoms: _366  and  _367
REMARK  147  A    between atoms: _366  and  _369
REMARK  148  A    between atoms: _369  and  _370
REMARK  149  A    between atoms: _375  and  _376
REMARK  150  A    between atoms: _378  and  _380
REMARK  151  A    between atoms: _380  and  _381
REMARK  152  A    between atoms: _380  and  _383
REMARK  153  A    between atoms: _383  and  _384
REMARK  154  A    between atoms: _387  and  _389
REMARK  155  A    between atoms: _389  and  _390
REMARK  156  A    between atoms: _389  and  _392
REMARK  157  A    between atoms: _392  and  _393
REMARK  158  A    between atoms: _393  and  _394
REMARK  159  A    between atoms: _394  and  _395
REMARK  160  A    between atoms: _395  and  _396
REMARK  161  A    between atoms: _400  and  _402
REMARK  162  A    between atoms: _402  and  _403
REMARK  163  A    between atoms: _402  and  _405
REMARK  164  A    between atoms: _405  and  _406
REMARK  165  A    between atoms: _409  and  _411
REMARK  166  A    between atoms: _411  and  _412
REMARK  167  A    between atoms: _411  and  _414
REMARK  168  A    between atoms: _417  and  _419
REMARK  169  A    between atoms: _419  and  _420
REMARK  170  A    between atoms: _419  and  _422
REMARK  171  A    between atoms: _422  and  _423
REMARK  172  A    between atoms: _426  and  _428
REMARK  173  A    between atoms: _428  and  _429
REMARK  174  A    between atoms: _428  and  _431
REMARK  175  A    between atoms: _431  and  _432
REMARK  176  A    between atoms: _434  and  _436
REMARK  177  A    between atoms: _436  and  _437
REMARK  178  A    between atoms: _439  and  _441
REMARK  179  A    between atoms: _441  and  _442
REMARK  180  A    between atoms: _441  and  _444
REMARK  181  A    between atoms: _444  and  _445
REMARK  182  A    between atoms: _448  and  _450
REMARK  183  A    between atoms: _450  and  _451
REMARK  184  A    between atoms: _450  and  _453
REMARK  185  A    between atoms: _453  and  _454
REMARK  186  A    between atoms: _457  and  _459
REMARK  187  A    between atoms: _459  and  _460
REMARK  188  A    between atoms: _459  and  _462
REMARK  189  A    between atoms: _462  and  _463
REMARK  190  A    between atoms: _468  and  _470
REMARK  191  A    between atoms: _470  and  _471
REMARK  192  A    between atoms: _470  and  _473
REMARK  193  A    between atoms: _473  and  _474
REMARK  194  A    between atoms: _474  and  _475
REMARK  195  A    between atoms: _475  and  _476
REMARK  196  A    between atoms: _485  and  _487
REMARK  197  A    between atoms: _487  and  _488
REMARK  198  A    between atoms: _487  and  _490
REMARK  199  A    between atoms: _490  and  _491
REMARK  200  A    between atoms: _493  and  _495
REMARK  201  A    between atoms: _495  and  _496
REMARK  202  A    between atoms: _495  and  _498
REMARK  203  A    between atoms: _498  and  _499
REMARK  204  A    between atoms: _499  and  _500
REMARK  205  A    between atoms: _505  and  _507
REMARK  206  A    between atoms: _507  and  _508
REMARK  207  A    between atoms: _507  and  _510
REMARK  208  A    between atoms: _510  and  _511
REMARK  209  A    between atoms: _513  and  _515
REMARK  210  A    between atoms: _515  and  _516
REMARK  211  A    between atoms: _515  and  _518
REMARK  212  A    between atoms: _518  and  _519
REMARK  213  A    between atoms: _521  and  _523
REMARK  214  A    between atoms: _523  and  _524
REMARK  215  A    between atoms: _523  and  _526
REMARK  216  A    between atoms: _526  and  _527
REMARK  217  A    between atoms: _530  and  _532
REMARK  218  A    between atoms: _532  and  _533
REMARK  219  A    between atoms: _535  and  _537
REMARK  220  A    between atoms: _537  and  _538
REMARK  221  A    between atoms: _537  and  _540
REMARK  222  A    between atoms: _540  and  _541
REMARK  223  A    between atoms: _544  and  _546
REMARK  224  A    between atoms: _546  and  _547
REMARK  225  A    between atoms: _546  and  _549
REMARK  226  A    between atoms: _552  and  _554
REMARK  227  A    between atoms: _554  and  _555
REMARK  228  A    between atoms: _554  and  _557
REMARK  229  A    between atoms: _557  and  _558
REMARK  230  A    between atoms: _558  and  _559
REMARK                            x       y       z     vdW  Elec       q    Type
REMARK                         _______ _______ _______ _____ _____    ______ ____
ROOT
ATOM      1  O   HOH     1      -9.081  10.708  39.859  0.00  0.00    +0.000 OA
ENDROOT
TORSDOF 0
REMARK  Name = ../refined-set-2016/4fsl/4fsl_pocket.pdb
REMARK  230 active torsions:
REMARK  status: ('A' for Active; 'I' for Inactive)
REMARK    1  A    between atoms: _1  and  _3
REMARK    2  A    between atoms: _3  and  _4
REMARK    3  A    between atoms: _3  and  _6
REMARK    4  A    between atoms: _6  and  _7
REMARK    5  A    between atoms: _9  and  _11
REMARK    6  A    between atoms: _11  and  _12
REMARK    7  A    between atoms: _14  and  _16
REMARK    8  A    between atoms: _16  and  _17
REMARK    9  A    between atoms: _16  and  _19
REMARK   10  A    between atoms: _19  and  _20
REMARK   11  A    between atoms: _20  and  _21
REMARK   12  A    between atoms: _26  and  _28
REMARK   13  A    between atoms: _28  and  _29
REMARK   14  A    between atoms: _31  and  _33
REMARK   15  A    between atoms: _33  and  _34
REMARK   16  A    between atoms: _33  and  _36
REMARK   17  A    between atoms: _36  and  _37
REMARK   18  A    between atoms: _42  and  _43
REMARK   19  A    between atoms: _45  and  _47
REMARK   20  A    between atoms: _47  and  _48
REMARK   21  A    between atoms: _47  and  _50
REMARK   22  A    between atoms: _50  and  _51
REMARK   23  A    between atoms: _54  and  _56
REMARK   24  A    between atoms: _56  and  _57
REMARK   25  A    between atoms: _56  and  _59
REMARK   26  A    between atoms: _62  and  _64
REMARK   27  A    between atoms: _64  and  _65
REMARK   28  A    between atoms: _64  and  _67
REMARK   29  A    between atoms: _67  and  _68
REMARK   30  A    between atoms: _71  and  _73
REMARK   31  A    between atoms: _73  and  _74
REMARK   32  A    between atoms: _73  and  _76
REMARK   33  A    between atoms: _76  and  _77
REMARK   34  A    between atoms: _80  and  _82
REMARK   35  A    between atoms: _82  and  _83
REMARK   36  A    between atoms: _85  and  _87
REMARK   37  A    between atoms: _87  and  _88
REMARK   38  A    between atoms: _87  and  _90
REMARK   39  A    between atoms: _90  and  _91
REMARK   40  A    between atoms: _93  and  _95
REMARK   41  A    between atoms: _95  and  _96
REMARK   42  A    between atoms: _95  and  _98
REMARK   43  A    between atoms: _98  and  _99
REMARK   44  A    between atoms: _101  and  _103
REMARK   45  A    between atoms: _103  and  _104
REMARK   46  A    between atoms: _103  and  _106
REMARK   47  A    between atoms: _106  and  _107
REMARK   48  A    between atoms: _112  and  _114
REMARK   49  A    between atoms: _114  and  _115
REMARK   50  A    between atoms: _114  and  _117
REMARK   51  A    between atoms: _117  and  _118
REMARK   52  A    between atoms: _124  and  _126
REMARK   53  A    between atoms: _126  and  _127
REMARK   54  A    between atoms: _126  and  _129
REMARK   55  A    between atoms: _133  and  _134
REMARK   56  A    between atoms: _139  and  _141
REMARK   57  A    between atoms: _141  and  _142
REMARK   58  A    between atoms: _141  and  _144
REMARK   59  A    between atoms: _144  and  _145
REMARK   60  A    between atoms: _150  and  _151
REMARK   61  A    between atoms: _153  and  _155
REMARK   62  A    between atoms: _155  and  _156
REMARK   63  A    between atoms: _155  and  _158
REMARK   64  A    between atoms: _158  and  _159
REMARK   65  A    between atoms: _162  and  _164
REMARK   66  A    between atoms: _164  and  _165
REMARK   67  A    between atoms: _164  and  _167
REMARK   68  A    between atoms: _167  and  _168
REMARK   69  A    between atoms: _168  and  _169
REMARK   70  A    between atoms: _174  and  _176
REMARK   71  A    between atoms: _176  and  _177
REMARK   72  A    between atoms: _179  and  _181
REMARK   73  A    between atoms: _181  and  _182
REMARK   74  A    between atoms: _181  and  _184
REMARK   75  A    between atoms: _184  and  _185
REMARK   76  A    between atoms: _185  and  _186
REMARK   77  A    between atoms: _186  and  _187
REMARK   78  A    between atoms: _187  and  _188
REMARK   79  A    between atoms: _192  and  _194
REMARK   80  A    between atoms: _194  and  _195
REMARK   81  A    between atoms: _194  and  _197
REMARK   82  A    between atoms: _197  and  _198
REMARK   83  A    between atoms: _208  and  _210
REMARK   84  A    between atoms: _210  and  _211
REMARK   85  A    between atoms: _210  and  _213
REMARK   86  A    between atoms: _213  and  _214
REMARK   87  A    between atoms: _217  and  _219
REMARK   88  A    between atoms: _219  and  _220
REMARK   89  A    between atoms: _219  and  _222
REMARK   90  A    between atoms: _222  and  _223
REMARK   91  A    between atoms: _223  and  _224
REMARK   92  A    between atoms: _224  and  _225
REMARK   93  A    between atoms: _225  and  _226
REMARK   94  A    between atoms: _230  and  _232
REMARK   95  A    between atoms: _232  and  _233
REMARK   96  A    between atoms: _232  and  _235
REMARK   97  A    between atoms: _235  and  _236
REMARK   98  A    between atoms: _242  and  _244
REMARK   99  A    between atoms: _244  and  _245
REMARK  100  A    between atoms: _244  and  _247
REMARK  101  A    between atoms: _247  and  _248
REMARK  102  A    between atoms: _254  and  _256
REMARK  103  A    between atoms: _256  and  _257
REMARK  104  A    between atoms: _256  and  _259
REMARK  105  A    between atoms: _259  and  _260
REMARK  106  A    between atoms: _263  and  _265
REMARK  107  A    between atoms: _265  and  _266
REMARK  108  A    between atoms: _265  and  _268
REMARK  109  A    between atoms: _268  and  _269
REMARK  110  A    between atoms: _274  and  _276
REMARK  111  A    between atoms: _276  and  _277
REMARK  112  A    between atoms: _276  and  _279
REMARK  113  A    between atoms: _279  and  _280
REMARK  114  A    between atoms: _282  and  _284
REMARK  115  A    between atoms: _284  and  _285
REMARK  116  A    between atoms: _284  and  _287
REMARK  117  A    between atoms: _287  and  _288
REMARK  118  A    between atoms: _298  and  _300
REMARK  119  A    between atoms: _300  and  _301
REMARK  120  A    between atoms: _303  and  _305
REMARK  121  A    between atoms: _305  and  _306
REMARK  122  A    between atoms: _305  and  _308
REMARK  123  A    between atoms: _308  and  _309
REMARK  124  A    between atoms: _312  and  _314
REMARK  125  A    between atoms: _314  and  _315
REMARK  126  A    between atoms: _314  and  _317
REMARK  127  A    between atoms: _317  and  _318
REMARK  128  A    between atoms: _321  and  _323
REMARK  129  A    between atoms: _323  and  _324
REMARK  130  A    between atoms: _326  and  _328
REMARK  131  A    between atoms: _328  and  _329
REMARK  132  A    between atoms: _328  and  _331
REMARK  133  A    between atoms: _331  and  _332
REMARK  134  A    between atoms: _335  and  _337
REMARK  135  A    between atoms: _337  and  _338
REMARK  136  A    between atoms: _341  and  _343
REMARK  137  A    between atoms: _343  and  _344
REMARK  138  A    between atoms: _343  and  _346
REMARK  139  A    between atoms: _346  and  _347
REMARK  140  A    between atoms: _350  and  _352
REMARK  141  A    between atoms: _352  and  _353
REMARK  142  A    between atoms: _352  and  _355
REMARK  143  A    between atoms: _355  and  _356
REMARK  144  A    between atoms: _361  and  _362
REMARK  145  A    between atoms: _364  and  _366
REMARK  146  A    between atoms: _366  and  _367
REMARK  147  A    between atoms: _366  and  _369
REMARK  148  A    between atoms: _369  and  _370
REMARK  149  A    between atoms: _375  and  _376
REMARK  150  A    between atoms: _378  and  _380
REMARK  151  A    between atoms: _380  and  _381
REMARK  152  A    between atoms: _380  and  _383
REMARK  153  A    between atoms: _383  and  _384
REMARK  154  A    between atoms: _387  and  _389
REMARK  155  A    between atoms: _389  and  _390
REMARK  156  A    between atoms: _389  and  _392
REMARK  157  A    between atoms: _392  and  _393
REMARK  158  A    between atoms: _393  and  _394
REMARK  159  A    between atoms: _394  and  _395
REMARK  160  A    between atoms: _395  and  _396
REMARK  161  A    between atoms: _400  and  _402
REMARK  162  A    between atoms: _402  and  _403
REMARK  163  A    between atoms: _402  and  _405
REMARK  164  A    between atoms: _405  and  _406
REMARK  165  A    between atoms: _409  and  _411
REMARK  166  A    between atoms: _411  and  _412
REMARK  167  A    between atoms: _411  and  _414
REMARK  168  A    between atoms: _417  and  _419
REMARK  169  A    between atoms: _419  and  _420
REMARK  170  A    between atoms: _419  and  _422
REMARK  171  A    between atoms: _422  and  _423
REMARK  172  A    between atoms: _426  and  _428
REMARK  173  A    between atoms: _428  and  _429
REMARK  174  A    between atoms: _428  and  _431
REMARK  175  A    between atoms: _431  and  _432
REMARK  176  A    between atoms: _434  and  _436
REMARK  177  A    between atoms: _436  and  _437
REMARK  178  A    between atoms: _439  and  _441
REMARK  179  A    between atoms: _441  and  _442
REMARK  180  A    between atoms: _441  and  _444
REMARK  181  A    between atoms: _444  and  _445
REMARK  182  A    between atoms: _448  and  _450
REMARK  183  A    between atoms: _450  and  _451
REMARK  184  A    between atoms: _450  and  _453
REMARK  185  A    between atoms: _453  and  _454
REMARK  186  A    between atoms: _457  and  _459
REMARK  187  A    between atoms: _459  and  _460
REMARK  188  A    between atoms: _459  and  _462
REMARK  189  A    between atoms: _462  and  _463
REMARK  190  A    between atoms: _468  and  _470
REMARK  191  A    between atoms: _470  and  _471
REMARK  192  A    between atoms: _470  and  _473
REMARK  193  A    between atoms: _473  and  _474
REMARK  194  A    between atoms: _474  and  _475
REMARK  195  A    between atoms: _475  and  _476
REMARK  196  A    between atoms: _485  and  _487
REMARK  197  A    between atoms: _487  and  _488
REMARK  198  A    between atoms: _487  and  _490
REMARK  199  A    between atoms: _490  and  _491
REMARK  200  A    between atoms: _493  and  _495
REMARK  201  A    between atoms: _495  and  _496
REMARK  202  A    between atoms: _495  and  _498
REMARK  203  A    between atoms: _498  and  _499
REMARK  204  A    between atoms: _499  and  _500
REMARK  205  A    between atoms: _505  and  _507
REMARK  206  A    between atoms: _507  and  _508
REMARK  207  A    between atoms: _507  and  _510
REMARK  208  A    between atoms: _510  and  _511
REMARK  209  A    between atoms: _513  and  _515
REMARK  210  A    between atoms: _515  and  _516
REMARK  211  A    between atoms: _515  and  _518
REMARK  212  A    between atoms: _518  and  _519
REMARK  213  A    between atoms: _521  and  _523
REMARK  214  A    between atoms: _523  and  _524
REMARK  215  A    between atoms: _523  and  _526
REMARK  216  A    between atoms: _526  and  _527
REMARK  217  A    between atoms: _530  and  _532
REMARK  218  A    between atoms: _532  and  _533
REMARK  219  A    between atoms: _535  and  _537
REMARK  220  A    between atoms: _537  and  _538
REMARK  221  A    between atoms: _537  and  _540
REMARK  222  A    between atoms: _540  and  _541
REMARK  223  A    between atoms: _544  and  _546
REMARK  224  A    between atoms: _546  and  _547
REMARK  225  A    between atoms: _546  and  _549
REMARK  226  A    between atoms: _552  and  _554
REMARK  227  A    between atoms: _554  and  _555
REMARK  228  A    between atoms: _554  and  _557
REMARK  229  A    between atoms: _557  and  _558
REMARK  230  A    between atoms: _558  and  _559
REMARK                            x       y       z     vdW  Elec       q    Type
REMARK                         _______ _______ _______ _____ _____    ______ ____
ROOT
ATOM      1  O   HOH     1       2.014  13.571  40.640  0.00  0.00    +0.000 OA
ENDROOT
TORSDOF 0
REMARK  Name = ../refined-set-2016/4fsl/4fsl_pocket.pdb
REMARK  230 active torsions:
REMARK  status: ('A' for Active; 'I' for Inactive)
REMARK    1  A    between atoms: _1  and  _3
REMARK    2  A    between atoms: _3  and  _4
REMARK    3  A    between atoms: _3  and  _6
REMARK    4  A    between atoms: _6  and  _7
REMARK    5  A    between atoms: _9  and  _11
REMARK    6  A    between atoms: _11  and  _12
REMARK    7  A    between atoms: _14  and  _16
REMARK    8  A    between atoms: _16  and  _17
REMARK    9  A    between atoms: _16  and  _19
REMARK   10  A    between atoms: _19  and  _20
REMARK   11  A    between atoms: _20  and  _21
REMARK   12  A    between atoms: _26  and  _28
REMARK   13  A    between atoms: _28  and  _29
REMARK   14  A    between atoms: _31  and  _33
REMARK   15  A    between atoms: _33  and  _34
REMARK   16  A    between atoms: _33  and  _36
REMARK   17  A    between atoms: _36  and  _37
REMARK   18  A    between atoms: _42  and  _43
REMARK   19  A    between atoms: _45  and  _47
REMARK   20  A    between atoms: _47  and  _48
REMARK   21  A    between atoms: _47  and  _50
REMARK   22  A    between atoms: _50  and  _51
REMARK   23  A    between atoms: _54  and  _56
REMARK   24  A    between atoms: _56  and  _57
REMARK   25  A    between atoms: _56  and  _59
REMARK   26  A    between atoms: _62  and  _64
REMARK   27  A    between atoms: _64  and  _65
REMARK   28  A    between atoms: _64  and  _67
REMARK   29  A    between atoms: _67  and  _68
REMARK   30  A    between atoms: _71  and  _73
REMARK   31  A    between atoms: _73  and  _74
REMARK   32  A    between atoms: _73  and  _76
REMARK   33  A    between atoms: _76  and  _77
REMARK   34  A    between atoms: _80  and  _82
REMARK   35  A    between atoms: _82  and  _83
REMARK   36  A    between atoms: _85  and  _87
REMARK   37  A    between atoms: _87  and  _88
REMARK   38  A    between atoms: _87  and  _90
REMARK   39  A    between atoms: _90  and  _91
REMARK   40  A    between atoms: _93  and  _95
REMARK   41  A    between atoms: _95  and  _96
REMARK   42  A    between atoms: _95  and  _98
REMARK   43  A    between atoms: _98  and  _99
REMARK   44  A    between atoms: _101  and  _103
REMARK   45  A    between atoms: _103  and  _104
REMARK   46  A    between atoms: _103  and  _106
REMARK   47  A    between atoms: _106  and  _107
REMARK   48  A    between atoms: _112  and  _114
REMARK   49  A    between atoms: _114  and  _115
REMARK   50  A    between atoms: _114  and  _117
REMARK   51  A    between atoms: _117  and  _118
REMARK   52  A    between atoms: _124  and  _126
REMARK   53  A    between atoms: _126  and  _127
REMARK   54  A    between atoms: _126  and  _129
REMARK   55  A    between atoms: _133  and  _134
REMARK   56  A    between atoms: _139  and  _141
REMARK   57  A    between atoms: _141  and  _142
REMARK   58  A    between atoms: _141  and  _144
REMARK   59  A    between atoms: _144  and  _145
REMARK   60  A    between atoms: _150  and  _151
REMARK   61  A    between atoms: _153  and  _155
REMARK   62  A    between atoms: _155  and  _156
REMARK   63  A    between atoms: _155  and  _158
REMARK   64  A    between atoms: _158  and  _159
REMARK   65  A    between atoms: _162  and  _164
REMARK   66  A    between atoms: _164  and  _165
REMARK   67  A    between atoms: _164  and  _167
REMARK   68  A    between atoms: _167  and  _168
REMARK   69  A    between atoms: _168  and  _169
REMARK   70  A    between atoms: _174  and  _176
REMARK   71  A    between atoms: _176  and  _177
REMARK   72  A    between atoms: _179  and  _181
REMARK   73  A    between atoms: _181  and  _182
REMARK   74  A    between atoms: _181  and  _184
REMARK   75  A    between atoms: _184  and  _185
REMARK   76  A    between atoms: _185  and  _186
REMARK   77  A    between atoms: _186  and  _187
REMARK   78  A    between atoms: _187  and  _188
REMARK   79  A    between atoms: _192  and  _194
REMARK   80  A    between atoms: _194  and  _195
REMARK   81  A    between atoms: _194  and  _197
REMARK   82  A    between atoms: _197  and  _198
REMARK   83  A    between atoms: _208  and  _210
REMARK   84  A    between atoms: _210  and  _211
REMARK   85  A    between atoms: _210  and  _213
REMARK   86  A    between atoms: _213  and  _214
REMARK   87  A    between atoms: _217  and  _219
REMARK   88  A    between atoms: _219  and  _220
REMARK   89  A    between atoms: _219  and  _222
REMARK   90  A    between atoms: _222  and  _223
REMARK   91  A    between atoms: _223  and  _224
REMARK   92  A    between atoms: _224  and  _225
REMARK   93  A    between atoms: _225  and  _226
REMARK   94  A    between atoms: _230  and  _232
REMARK   95  A    between atoms: _232  and  _233
REMARK   96  A    between atoms: _232  and  _235
REMARK   97  A    between atoms: _235  and  _236
REMARK   98  A    between atoms: _242  and  _244
REMARK   99  A    between atoms: _244  and  _245
REMARK  100  A    between atoms: _244  and  _247
REMARK  101  A    between atoms: _247  and  _248
REMARK  102  A    between atoms: _254  and  _256
REMARK  103  A    between atoms: _256  and  _257
REMARK  104  A    between atoms: _256  and  _259
REMARK  105  A    between atoms: _259  and  _260
REMARK  106  A    between atoms: _263  and  _265
REMARK  107  A    between atoms: _265  and  _266
REMARK  108  A    between atoms: _265  and  _268
REMARK  109  A    between atoms: _268  and  _269
REMARK  110  A    between atoms: _274  and  _276
REMARK  111  A    between atoms: _276  and  _277
REMARK  112  A    between atoms: _276  and  _279
REMARK  113  A    between atoms: _279  and  _280
REMARK  114  A    between atoms: _282  and  _284
REMARK  115  A    between atoms: _284  and  _285
REMARK  116  A    between atoms: _284  and  _287
REMARK  117  A    between atoms: _287  and  _288
REMARK  118  A    between atoms: _298  and  _300
REMARK  119  A    between atoms: _300  and  _301
REMARK  120  A    between atoms: _303  and  _305
REMARK  121  A    between atoms: _305  and  _306
REMARK  122  A    between atoms: _305  and  _308
REMARK  123  A    between atoms: _308  and  _309
REMARK  124  A    between atoms: _312  and  _314
REMARK  125  A    between atoms: _314  and  _315
REMARK  126  A    between atoms: _314  and  _317
REMARK  127  A    between atoms: _317  and  _318
REMARK  128  A    between atoms: _321  and  _323
REMARK  129  A    between atoms: _323  and  _324
REMARK  130  A    between atoms: _326  and  _328
REMARK  131  A    between atoms: _328  and  _329
REMARK  132  A    between atoms: _328  and  _331
REMARK  133  A    between atoms: _331  and  _332
REMARK  134  A    between atoms: _335  and  _337
REMARK  135  A    between atoms: _337  and  _338
REMARK  136  A    between atoms: _341  and  _343
REMARK  137  A    between atoms: _343  and  _344
REMARK  138  A    between atoms: _343  and  _346
REMARK  139  A    between atoms: _346  and  _347
REMARK  140  A    between atoms: _350  and  _352
REMARK  141  A    between atoms: _352  and  _353
REMARK  142  A    between atoms: _352  and  _355
REMARK  143  A    between atoms: _355  and  _356
REMARK  144  A    between atoms: _361  and  _362
REMARK  145  A    between atoms: _364  and  _366
REMARK  146  A    between atoms: _366  and  _367
REMARK  147  A    between atoms: _366  and  _369
REMARK  148  A    between atoms: _369  and  _370
REMARK  149  A    between atoms: _375  and  _376
REMARK  150  A    between atoms: _378  and  _380
REMARK  151  A    between atoms: _380  and  _381
REMARK  152  A    between atoms: _380  and  _383
REMARK  153  A    between atoms: _383  and  _384
REMARK  154  A    between atoms: _387  and  _389
REMARK  155  A    between atoms: _389  and  _390
REMARK  156  A    between atoms: _389  and  _392
REMARK  157  A    between atoms: _392  and  _393
REMARK  158  A    between atoms: _393  and  _394
REMARK  159  A    between atoms: _394  and  _395
REMARK  160  A    between atoms: _395  and  _396
REMARK  161  A    between atoms: _400  and  _402
REMARK  162  A    between atoms: _402  and  _403
REMARK  163  A    between atoms: _402  and  _405
REMARK  164  A    between atoms: _405  and  _406
REMARK  165  A    between atoms: _409  and  _411
REMARK  166  A    between atoms: _411  and  _412
REMARK  167  A    between atoms: _411  and  _414
REMARK  168  A    between atoms: _417  and  _419
REMARK  169  A    between atoms: _419  and  _420
REMARK  170  A    between atoms: _419  and  _422
REMARK  171  A    between atoms: _422  and  _423
REMARK  172  A    between atoms: _426  and  _428
REMARK  173  A    between atoms: _428  and  _429
REMARK  174  A    between atoms: _428  and  _431
REMARK  175  A    between atoms: _431  and  _432
REMARK  176  A    between atoms: _434  and  _436
REMARK  177  A    between atoms: _436  and  _437
REMARK  178  A    between atoms: _439  and  _441
REMARK  179  A    between atoms: _441  and  _442
REMARK  180  A    between atoms: _441  and  _444
REMARK  181  A    between atoms: _444  and  _445
REMARK  182  A    between atoms: _448  and  _450
REMARK  183  A    between atoms: _450  and  _451
REMARK  184  A    between atoms: _450  and  _453
REMARK  185  A    between atoms: _453  and  _454
REMARK  186  A    between atoms: _457  and  _459
REMARK  187  A    between atoms: _459  and  _460
REMARK  188  A    between atoms: _459  and  _462
REMARK  189  A    between atoms: _462  and  _463
REMARK  190  A    between atoms: _468  and  _470
REMARK  191  A    between atoms: _470  and  _471
REMARK  192  A    between atoms: _470  and  _473
REMARK  193  A    between atoms: _473  and  _474
REMARK  194  A    between atoms: _474  and  _475
REMARK  195  A    between atoms: _475  and  _476
REMARK  196  A    between atoms: _485  and  _487
REMARK  197  A    between atoms: _487  and  _488
REMARK  198  A    between atoms: _487  and  _490
REMARK  199  A    between atoms: _490  and  _491
REMARK  200  A    between atoms: _493  and  _495
REMARK  201  A    between atoms: _495  and  _496
REMARK  202  A    between atoms: _495  and  _498
REMARK  203  A    between atoms: _498  and  _499
REMARK  204  A    between atoms: _499  and  _500
REMARK  205  A    between atoms: _505  and  _507
REMARK  206  A    between atoms: _507  and  _508
REMARK  207  A    between atoms: _507  and  _510
REMARK  208  A    between atoms: _510  and  _511
REMARK  209  A    between atoms: _513  and  _515
REMARK  210  A    between atoms: _515  and  _516
REMARK  211  A    between atoms: _515  and  _518
REMARK  212  A    between atoms: _518  and  _519
REMARK  213  A    between atoms: _521  and  _523
REMARK  214  A    between atoms: _523  and  _524
REMARK  215  A    between atoms: _523  and  _526
REMARK  216  A    between atoms: _526  and  _527
REMARK  217  A    between atoms: _530  and  _532
REMARK  218  A    between atoms: _532  and  _533
REMARK  219  A    between atoms: _535  and  _537
REMARK  220  A    between atoms: _537  and  _538
REMARK  221  A    between atoms: _537  and  _540
REMARK  222  A    between atoms: _540  and  _541
REMARK  223  A    between atoms: _544  and  _546
REMARK  224  A    between atoms: _546  and  _547
REMARK  225  A    between atoms: _546  and  _549
REMARK  226  A    between atoms: _552  and  _554
REMARK  227  A    between atoms: _554  and  _555
REMARK  228  A    between atoms: _554  and  _557
REMARK  229  A    between atoms: _557  and  _558
REMARK  230  A    between atoms: _558  and  _559
REMARK                            x       y       z     vdW  Elec       q    Type
REMARK                         _______ _______ _______ _____ _____    ______ ____
ROOT
ATOM      1  O   HOH     1      -9.232  17.580  31.220  0.00  0.00    +0.000 OA
ENDROOT
TORSDOF 0
REMARK  Name = ../refined-set-2016/4fsl/4fsl_pocket.pdb
REMARK  230 active torsions:
REMARK  status: ('A' for Active; 'I' for Inactive)
REMARK    1  A    between atoms: _1  and  _3
REMARK    2  A    between atoms: _3  and  _4
REMARK    3  A    between atoms: _3  and  _6
REMARK    4  A    between atoms: _6  and  _7
REMARK    5  A    between atoms: _9  and  _11
REMARK    6  A    between atoms: _11  and  _12
REMARK    7  A    between atoms: _14  and  _16
REMARK    8  A    between atoms: _16  and  _17
REMARK    9  A    between atoms: _16  and  _19
REMARK   10  A    between atoms: _19  and  _20
REMARK   11  A    between atoms: _20  and  _21
REMARK   12  A    between atoms: _26  and  _28
REMARK   13  A    between atoms: _28  and  _29
REMARK   14  A    between atoms: _31  and  _33
REMARK   15  A    between atoms: _33  and  _34
REMARK   16  A    between atoms: _33  and  _36
REMARK   17  A    between atoms: _36  and  _37
REMARK   18  A    between atoms: _42  and  _43
REMARK   19  A    between atoms: _45  and  _47
REMARK   20  A    between atoms: _47  and  _48
REMARK   21  A    between atoms: _47  and  _50
REMARK   22  A    between atoms: _50  and  _51
REMARK   23  A    between atoms: _54  and  _56
REMARK   24  A    between atoms: _56  and  _57
REMARK   25  A    between atoms: _56  and  _59
REMARK   26  A    between atoms: _62  and  _64
REMARK   27  A    between atoms: _64  and  _65
REMARK   28  A    between atoms: _64  and  _67
REMARK   29  A    between atoms: _67  and  _68
REMARK   30  A    between atoms: _71  and  _73
REMARK   31  A    between atoms: _73  and  _74
REMARK   32  A    between atoms: _73  and  _76
REMARK   33  A    between atoms: _76  and  _77
REMARK   34  A    between atoms: _80  and  _82
REMARK   35  A    between atoms: _82  and  _83
REMARK   36  A    between atoms: _85  and  _87
REMARK   37  A    between atoms: _87  and  _88
REMARK   38  A    between atoms: _87  and  _90
REMARK   39  A    between atoms: _90  and  _91
REMARK   40  A    between atoms: _93  and  _95
REMARK   41  A    between atoms: _95  and  _96
REMARK   42  A    between atoms: _95  and  _98
REMARK   43  A    between atoms: _98  and  _99
REMARK   44  A    between atoms: _101  and  _103
REMARK   45  A    between atoms: _103  and  _104
REMARK   46  A    between atoms: _103  and  _106
REMARK   47  A    between atoms: _106  and  _107
REMARK   48  A    between atoms: _112  and  _114
REMARK   49  A    between atoms: _114  and  _115
REMARK   50  A    between atoms: _114  and  _117
REMARK   51  A    between atoms: _117  and  _118
REMARK   52  A    between atoms: _124  and  _126
REMARK   53  A    between atoms: _126  and  _127
REMARK   54  A    between atoms: _126  and  _129
REMARK   55  A    between atoms: _133  and  _134
REMARK   56  A    between atoms: _139  and  _141
REMARK   57  A    between atoms: _141  and  _142
REMARK   58  A    between atoms: _141  and  _144
REMARK   59  A    between atoms: _144  and  _145
REMARK   60  A    between atoms: _150  and  _151
REMARK   61  A    between atoms: _153  and  _155
REMARK   62  A    between atoms: _155  and  _156
REMARK   63  A    between atoms: _155  and  _158
REMARK   64  A    between atoms: _158  and  _159
REMARK   65  A    between atoms: _162  and  _164
REMARK   66  A    between atoms: _164  and  _165
REMARK   67  A    between atoms: _164  and  _167
REMARK   68  A    between atoms: _167  and  _168
REMARK   69  A    between atoms: _168  and  _169
REMARK   70  A    between atoms: _174  and  _176
REMARK   71  A    between atoms: _176  and  _177
REMARK   72  A    between atoms: _179  and  _181
REMARK   73  A    between atoms: _181  and  _182
REMARK   74  A    between atoms: _181  and  _184
REMARK   75  A    between atoms: _184  and  _185
REMARK   76  A    between atoms: _185  and  _186
REMARK   77  A    between atoms: _186  and  _187
REMARK   78  A    between atoms: _187  and  _188
REMARK   79  A    between atoms: _192  and  _194
REMARK   80  A    between atoms: _194  and  _195
REMARK   81  A    between atoms: _194  and  _197
REMARK   82  A    between atoms: _197  and  _198
REMARK   83  A    between atoms: _208  and  _210
REMARK   84  A    between atoms: _210  and  _211
REMARK   85  A    between atoms: _210  and  _213
REMARK   86  A    between atoms: _213  and  _214
REMARK   87  A    between atoms: _217  and  _219
REMARK   88  A    between atoms: _219  and  _220
REMARK   89  A    between atoms: _219  and  _222
REMARK   90  A    between atoms: _222  and  _223
REMARK   91  A    between atoms: _223  and  _224
REMARK   92  A    between atoms: _224  and  _225
REMARK   93  A    between atoms: _225  and  _226
REMARK   94  A    between atoms: _230  and  _232
REMARK   95  A    between atoms: _232  and  _233
REMARK   96  A    between atoms: _232  and  _235
REMARK   97  A    between atoms: _235  and  _236
REMARK   98  A    between atoms: _242  and  _244
REMARK   99  A    between atoms: _244  and  _245
REMARK  100  A    between atoms: _244  and  _247
REMARK  101  A    between atoms: _247  and  _248
REMARK  102  A    between atoms: _254  and  _256
REMARK  103  A    between atoms: _256  and  _257
REMARK  104  A    between atoms: _256  and  _259
REMARK  105  A    between atoms: _259  and  _260
REMARK  106  A    between atoms: _263  and  _265
REMARK  107  A    between atoms: _265  and  _266
REMARK  108  A    between atoms: _265  and  _268
REMARK  109  A    between atoms: _268  and  _269
REMARK  110  A    between atoms: _274  and  _276
REMARK  111  A    between atoms: _276  and  _277
REMARK  112  A    between atoms: _276  and  _279
REMARK  113  A    between atoms: _279  and  _280
REMARK  114  A    between atoms: _282  and  _284
REMARK  115  A    between atoms: _284  and  _285
REMARK  116  A    between atoms: _284  and  _287
REMARK  117  A    between atoms: _287  and  _288
REMARK  118  A    between atoms: _298  and  _300
REMARK  119  A    between atoms: _300  and  _301
REMARK  120  A    between atoms: _303  and  _305
REMARK  121  A    between atoms: _305  and  _306
REMARK  122  A    between atoms: _305  and  _308
REMARK  123  A    between atoms: _308  and  _309
REMARK  124  A    between atoms: _312  and  _314
REMARK  125  A    between atoms: _314  and  _315
REMARK  126  A    between atoms: _314  and  _317
REMARK  127  A    between atoms: _317  and  _318
REMARK  128  A    between atoms: _321  and  _323
REMARK  129  A    between atoms: _323  and  _324
REMARK  130  A    between atoms: _326  and  _328
REMARK  131  A    between atoms: _328  and  _329
REMARK  132  A    between atoms: _328  and  _331
REMARK  133  A    between atoms: _331  and  _332
REMARK  134  A    between atoms: _335  and  _337
REMARK  135  A    between atoms: _337  and  _338
REMARK  136  A    between atoms: _341  and  _343
REMARK  137  A    between atoms: _343  and  _344
REMARK  138  A    between atoms: _343  and  _346
REMARK  139  A    between atoms: _346  and  _347
REMARK  140  A    between atoms: _350  and  _352
REMARK  141  A    between atoms: _352  and  _353
REMARK  142  A    between atoms: _352  and  _355
REMARK  143  A    between atoms: _355  and  _356
REMARK  144  A    between atoms: _361  and  _362
REMARK  145  A    between atoms: _364  and  _366
REMARK  146  A    between atoms: _366  and  _367
REMARK  147  A    between atoms: _366  and  _369
REMARK  148  A    between atoms: _369  and  _370
REMARK  149  A    between atoms: _375  and  _376
REMARK  150  A    between atoms: _378  and  _380
REMARK  151  A    between atoms: _380  and  _381
REMARK  152  A    between atoms: _380  and  _383
REMARK  153  A    between atoms: _383  and  _384
REMARK  154  A    between atoms: _387  and  _389
REMARK  155  A    between atoms: _389  and  _390
REMARK  156  A    between atoms: _389  and  _392
REMARK  157  A    between atoms: _392  and  _393
REMARK  158  A    between atoms: _393  and  _394
REMARK  159  A    between atoms: _394  and  _395
REMARK  160  A    between atoms: _395  and  _396
REMARK  161  A    between atoms: _400  and  _402
REMARK  162  A    between atoms: _402  and  _403
REMARK  163  A    between atoms: _402  and  _405
REMARK  164  A    between atoms: _405  and  _406
REMARK  165  A    between atoms: _409  and  _411
REMARK  166  A    between atoms: _411  and  _412
REMARK  167  A    between atoms: _411  and  _414
REMARK  168  A    between atoms: _417  and  _419
REMARK  169  A    between atoms: _419  and  _420
REMARK  170  A    between atoms: _419  and  _422
REMARK  171  A    between atoms: _422  and  _423
REMARK  172  A    between atoms: _426  and  _428
REMARK  173  A    between atoms: _428  and  _429
REMARK  174  A    between atoms: _428  and  _431
REMARK  175  A    between atoms: _431  and  _432
REMARK  176  A    between atoms: _434  and  _436
REMARK  177  A    between atoms: _436  and  _437
REMARK  178  A    between atoms: _439  and  _441
REMARK  179  A    between atoms: _441  and  _442
REMARK  180  A    between atoms: _441  and  _444
REMARK  181  A    between atoms: _444  and  _445
REMARK  182  A    between atoms: _448  and  _450
REMARK  183  A    between atoms: _450  and  _451
REMARK  184  A    between atoms: _450  and  _453
REMARK  185  A    between atoms: _453  and  _454
REMARK  186  A    between atoms: _457  and  _459
REMARK  187  A    between atoms: _459  and  _460
REMARK  188  A    between atoms: _459  and  _462
REMARK  189  A    between atoms: _462  and  _463
REMARK  190  A    between atoms: _468  and  _470
REMARK  191  A    between atoms: _470  and  _471
REMARK  192  A    between atoms: _470  and  _473
REMARK  193  A    between atoms: _473  and  _474
REMARK  194  A    between atoms: _474  and  _475
REMARK  195  A    between atoms: _475  and  _476
REMARK  196  A    between atoms: _485  and  _487
REMARK  197  A    between atoms: _487  and  _488
REMARK  198  A    between atoms: _487  and  _490
REMARK  199  A    between atoms: _490  and  _491
REMARK  200  A    between atoms: _493  and  _495
REMARK  201  A    between atoms: _495  and  _496
REMARK  202  A    between atoms: _495  and  _498
REMARK  203  A    between atoms: _498  and  _499
REMARK  204  A    between atoms: _499  and  _500
REMARK  205  A    between atoms: _505  and  _507
REMARK  206  A    between atoms: _507  and  _508
REMARK  207  A    between atoms: _507  and  _510
REMARK  208  A    between atoms: _510  and  _511
REMARK  209  A    between atoms: _513  and  _515
REMARK  210  A    between atoms: _515  and  _516
REMARK  211  A    between atoms: _515  and  _518
REMARK  212  A    between atoms: _518  and  _519
REMARK  213  A    between atoms: _521  and  _523
REMARK  214  A    between atoms: _523  and  _524
REMARK  215  A    between atoms: _523  and  _526
REMARK  216  A    between atoms: _526  and  _527
REMARK  217  A    between atoms: _530  and  _532
REMARK  218  A    between atoms: _532  and  _533
REMARK  219  A    between atoms: _535  and  _537
REMARK  220  A    between atoms: _537  and  _538
REMARK  221  A    between atoms: _537  and  _540
REMARK  222  A    between atoms: _540  and  _541
REMARK  223  A    between atoms: _544  and  _546
REMARK  224  A    between atoms: _546  and  _547
REMARK  225  A    between atoms: _546  and  _549
REMARK  226  A    between atoms: _552  and  _554
REMARK  227  A    between atoms: _554  and  _555
REMARK  228  A    between atoms: _554  and  _557
REMARK  229  A    between atoms: _557  and  _558
REMARK  230  A    between atoms: _558  and  _559
REMARK                            x       y       z     vdW  Elec       q    Type
REMARK                         _______ _______ _______ _____ _____    ______ ____
ROOT
ATOM      1  O   HOH     1     -11.256  13.359  36.445  0.00  0.00    +0.000 OA
ENDROOT
TORSDOF 0
REMARK  Name = ../refined-set-2016/4fsl/4fsl_pocket.pdb
REMARK  230 active torsions:
REMARK  status: ('A' for Active; 'I' for Inactive)
REMARK    1  A    between atoms: _1  and  _3
REMARK    2  A    between atoms: _3  and  _4
REMARK    3  A    between atoms: _3  and  _6
REMARK    4  A    between atoms: _6  and  _7
REMARK    5  A    between atoms: _9  and  _11
REMARK    6  A    between atoms: _11  and  _12
REMARK    7  A    between atoms: _14  and  _16
REMARK    8  A    between atoms: _16  and  _17
REMARK    9  A    between atoms: _16  and  _19
REMARK   10  A    between atoms: _19  and  _20
REMARK   11  A    between atoms: _20  and  _21
REMARK   12  A    between atoms: _26  and  _28
REMARK   13  A    between atoms: _28  and  _29
REMARK   14  A    between atoms: _31  and  _33
REMARK   15  A    between atoms: _33  and  _34
REMARK   16  A    between atoms: _33  and  _36
REMARK   17  A    between atoms: _36  and  _37
REMARK   18  A    between atoms: _42  and  _43
REMARK   19  A    between atoms: _45  and  _47
REMARK   20  A    between atoms: _47  and  _48
REMARK   21  A    between atoms: _47  and  _50
REMARK   22  A    between atoms: _50  and  _51
REMARK   23  A    between atoms: _54  and  _56
REMARK   24  A    between atoms: _56  and  _57
REMARK   25  A    between atoms: _56  and  _59
REMARK   26  A    between atoms: _62  and  _64
REMARK   27  A    between atoms: _64  and  _65
REMARK   28  A    between atoms: _64  and  _67
REMARK   29  A    between atoms: _67  and  _68
REMARK   30  A    between atoms: _71  and  _73
REMARK   31  A    between atoms: _73  and  _74
REMARK   32  A    between atoms: _73  and  _76
REMARK   33  A    between atoms: _76  and  _77
REMARK   34  A    between atoms: _80  and  _82
REMARK   35  A    between atoms: _82  and  _83
REMARK   36  A    between atoms: _85  and  _87
REMARK   37  A    between atoms: _87  and  _88
REMARK   38  A    between atoms: _87  and  _90
REMARK   39  A    between atoms: _90  and  _91
REMARK   40  A    between atoms: _93  and  _95
REMARK   41  A    between atoms: _95  and  _96
REMARK   42  A    between atoms: _95  and  _98
REMARK   43  A    between atoms: _98  and  _99
REMARK   44  A    between atoms: _101  and  _103
REMARK   45  A    between atoms: _103  and  _104
REMARK   46  A    between atoms: _103  and  _106
REMARK   47  A    between atoms: _106  and  _107
REMARK   48  A    between atoms: _112  and  _114
REMARK   49  A    between atoms: _114  and  _115
REMARK   50  A    between atoms: _114  and  _117
REMARK   51  A    between atoms: _117  and  _118
REMARK   52  A    between atoms: _124  and  _126
REMARK   53  A    between atoms: _126  and  _127
REMARK   54  A    between atoms: _126  and  _129
REMARK   55  A    between atoms: _133  and  _134
REMARK   56  A    between atoms: _139  and  _141
REMARK   57  A    between atoms: _141  and  _142
REMARK   58  A    between atoms: _141  and  _144
REMARK   59  A    between atoms: _144  and  _145
REMARK   60  A    between atoms: _150  and  _151
REMARK   61  A    between atoms: _153  and  _155
REMARK   62  A    between atoms: _155  and  _156
REMARK   63  A    between atoms: _155  and  _158
REMARK   64  A    between atoms: _158  and  _159
REMARK   65  A    between atoms: _162  and  _164
REMARK   66  A    between atoms: _164  and  _165
REMARK   67  A    between atoms: _164  and  _167
REMARK   68  A    between atoms: _167  and  _168
REMARK   69  A    between atoms: _168  and  _169
REMARK   70  A    between atoms: _174  and  _176
REMARK   71  A    between atoms: _176  and  _177
REMARK   72  A    between atoms: _179  and  _181
REMARK   73  A    between atoms: _181  and  _182
REMARK   74  A    between atoms: _181  and  _184
REMARK   75  A    between atoms: _184  and  _185
REMARK   76  A    between atoms: _185  and  _186
REMARK   77  A    between atoms: _186  and  _187
REMARK   78  A    between atoms: _187  and  _188
REMARK   79  A    between atoms: _192  and  _194
REMARK   80  A    between atoms: _194  and  _195
REMARK   81  A    between atoms: _194  and  _197
REMARK   82  A    between atoms: _197  and  _198
REMARK   83  A    between atoms: _208  and  _210
REMARK   84  A    between atoms: _210  and  _211
REMARK   85  A    between atoms: _210  and  _213
REMARK   86  A    between atoms: _213  and  _214
REMARK   87  A    between atoms: _217  and  _219
REMARK   88  A    between atoms: _219  and  _220
REMARK   89  A    between atoms: _219  and  _222
REMARK   90  A    between atoms: _222  and  _223
REMARK   91  A    between atoms: _223  and  _224
REMARK   92  A    between atoms: _224  and  _225
REMARK   93  A    between atoms: _225  and  _226
REMARK   94  A    between atoms: _230  and  _232
REMARK   95  A    between atoms: _232  and  _233
REMARK   96  A    between atoms: _232  and  _235
REMARK   97  A    between atoms: _235  and  _236
REMARK   98  A    between atoms: _242  and  _244
REMARK   99  A    between atoms: _244  and  _245
REMARK  100  A    between atoms: _244  and  _247
REMARK  101  A    between atoms: _247  and  _248
REMARK  102  A    between atoms: _254  and  _256
REMARK  103  A    between atoms: _256  and  _257
REMARK  104  A    between atoms: _256  and  _259
REMARK  105  A    between atoms: _259  and  _260
REMARK  106  A    between atoms: _263  and  _265
REMARK  107  A    between atoms: _265  and  _266
REMARK  108  A    between atoms: _265  and  _268
REMARK  109  A    between atoms: _268  and  _269
REMARK  110  A    between atoms: _274  and  _276
REMARK  111  A    between atoms: _276  and  _277
REMARK  112  A    between atoms: _276  and  _279
REMARK  113  A    between atoms: _279  and  _280
REMARK  114  A    between atoms: _282  and  _284
REMARK  115  A    between atoms: _284  and  _285
REMARK  116  A    between atoms: _284  and  _287
REMARK  117  A    between atoms: _287  and  _288
REMARK  118  A    between atoms: _298  and  _300
REMARK  119  A    between atoms: _300  and  _301
REMARK  120  A    between atoms: _303  and  _305
REMARK  121  A    between atoms: _305  and  _306
REMARK  122  A    between atoms: _305  and  _308
REMARK  123  A    between atoms: _308  and  _309
REMARK  124  A    between atoms: _312  and  _314
REMARK  125  A    between atoms: _314  and  _315
REMARK  126  A    between atoms: _314  and  _317
REMARK  127  A    between atoms: _317  and  _318
REMARK  128  A    between atoms: _321  and  _323
REMARK  129  A    between atoms: _323  and  _324
REMARK  130  A    between atoms: _326  and  _328
REMARK  131  A    between atoms: _328  and  _329
REMARK  132  A    between atoms: _328  and  _331
REMARK  133  A    between atoms: _331  and  _332
REMARK  134  A    between atoms: _335  and  _337
REMARK  135  A    between atoms: _337  and  _338
REMARK  136  A    between atoms: _341  and  _343
REMARK  137  A    between atoms: _343  and  _344
REMARK  138  A    between atoms: _343  and  _346
REMARK  139  A    between atoms: _346  and  _347
REMARK  140  A    between atoms: _350  and  _352
REMARK  141  A    between atoms: _352  and  _353
REMARK  142  A    between atoms: _352  and  _355
REMARK  143  A    between atoms: _355  and  _356
REMARK  144  A    between atoms: _361  and  _362
REMARK  145  A    between atoms: _364  and  _366
REMARK  146  A    between atoms: _366  and  _367
REMARK  147  A    between atoms: _366  and  _369
REMARK  148  A    between atoms: _369  and  _370
REMARK  149  A    between atoms: _375  and  _376
REMARK  150  A    between atoms: _378  and  _380
REMARK  151  A    between atoms: _380  and  _381
REMARK  152  A    between atoms: _380  and  _383
REMARK  153  A    between atoms: _383  and  _384
REMARK  154  A    between atoms: _387  and  _389
REMARK  155  A    between atoms: _389  and  _390
REMARK  156  A    between atoms: _389  and  _392
REMARK  157  A    between atoms: _392  and  _393
REMARK  158  A    between atoms: _393  and  _394
REMARK  159  A    between atoms: _394  and  _395
REMARK  160  A    between atoms: _395  and  _396
REMARK  161  A    between atoms: _400  and  _402
REMARK  162  A    between atoms: _402  and  _403
REMARK  163  A    between atoms: _402  and  _405
REMARK  164  A    between atoms: _405  and  _406
REMARK  165  A    between atoms: _409  and  _411
REMARK  166  A    between atoms: _411  and  _412
REMARK  167  A    between atoms: _411  and  _414
REMARK  168  A    between atoms: _417  and  _419
REMARK  169  A    between atoms: _419  and  _420
REMARK  170  A    between atoms: _419  and  _422
REMARK  171  A    between atoms: _422  and  _423
REMARK  172  A    between atoms: _426  and  _428
REMARK  173  A    between atoms: _428  and  _429
REMARK  174  A    between atoms: _428  and  _431
REMARK  175  A    between atoms: _431  and  _432
REMARK  176  A    between atoms: _434  and  _436
REMARK  177  A    between atoms: _436  and  _437
REMARK  178  A    between atoms: _439  and  _441
REMARK  179  A    between atoms: _441  and  _442
REMARK  180  A    between atoms: _441  and  _444
REMARK  181  A    between atoms: _444  and  _445
REMARK  182  A    between atoms: _448  and  _450
REMARK  183  A    between atoms: _450  and  _451
REMARK  184  A    between atoms: _450  and  _453
REMARK  185  A    between atoms: _453  and  _454
REMARK  186  A    between atoms: _457  and  _459
REMARK  187  A    between atoms: _459  and  _460
REMARK  188  A    between atoms: _459  and  _462
REMARK  189  A    between atoms: _462  and  _463
REMARK  190  A    between atoms: _468  and  _470
REMARK  191  A    between atoms: _470  and  _471
REMARK  192  A    between atoms: _470  and  _473
REMARK  193  A    between atoms: _473  and  _474
REMARK  194  A    between atoms: _474  and  _475
REMARK  195  A    between atoms: _475  and  _476
REMARK  196  A    between atoms: _485  and  _487
REMARK  197  A    between atoms: _487  and  _488
REMARK  198  A    between atoms: _487  and  _490
REMARK  199  A    between atoms: _490  and  _491
REMARK  200  A    between atoms: _493  and  _495
REMARK  201  A    between atoms: _495  and  _496
REMARK  202  A    between atoms: _495  and  _498
REMARK  203  A    between atoms: _498  and  _499
REMARK  204  A    between atoms: _499  and  _500
REMARK  205  A    between atoms: _505  and  _507
REMARK  206  A    between atoms: _507  and  _508
REMARK  207  A    between atoms: _507  and  _510
REMARK  208  A    between atoms: _510  and  _511
REMARK  209  A    between atoms: _513  and  _515
REMARK  210  A    between atoms: _515  and  _516
REMARK  211  A    between atoms: _515  and  _518
REMARK  212  A    between atoms: _518  and  _519
REMARK  213  A    between atoms: _521  and  _523
REMARK  214  A    between atoms: _523  and  _524
REMARK  215  A    between atoms: _523  and  _526
REMARK  216  A    between atoms: _526  and  _527
REMARK  217  A    between atoms: _530  and  _532
REMARK  218  A    between atoms: _532  and  _533
REMARK  219  A    between atoms: _535  and  _537
REMARK  220  A    between atoms: _537  and  _538
REMARK  221  A    between atoms: _537  and  _540
REMARK  222  A    between atoms: _540  and  _541
REMARK  223  A    between atoms: _544  and  _546
REMARK  224  A    between atoms: _546  and  _547
REMARK  225  A    between atoms: _546  and  _549
REMARK  226  A    between atoms: _552  and  _554
REMARK  227  A    between atoms: _554  and  _555
REMARK  228  A    between atoms: _554  and  _557
REMARK  229  A    between atoms: _557  and  _558
REMARK  230  A    between atoms: _558  and  _559
REMARK                            x       y       z     vdW  Elec       q    Type
REMARK                         _______ _______ _______ _____ _____    ______ ____
ROOT
ATOM      1  O   HOH     1       0.820   3.758  35.777  0.00  0.00    +0.000 OA
ENDROOT
TORSDOF 0
REMARK  Name = ../refined-set-2016/4fsl/4fsl_pocket.pdb
REMARK  230 active torsions:
REMARK  status: ('A' for Active; 'I' for Inactive)
REMARK    1  A    between atoms: _1  and  _3
REMARK    2  A    between atoms: _3  and  _4
REMARK    3  A    between atoms: _3  and  _6
REMARK    4  A    between atoms: _6  and  _7
REMARK    5  A    between atoms: _9  and  _11
REMARK    6  A    between atoms: _11  and  _12
REMARK    7  A    between atoms: _14  and  _16
REMARK    8  A    between atoms: _16  and  _17
REMARK    9  A    between atoms: _16  and  _19
REMARK   10  A    between atoms: _19  and  _20
REMARK   11  A    between atoms: _20  and  _21
REMARK   12  A    between atoms: _26  and  _28
REMARK   13  A    between atoms: _28  and  _29
REMARK   14  A    between atoms: _31  and  _33
REMARK   15  A    between atoms: _33  and  _34
REMARK   16  A    between atoms: _33  and  _36
REMARK   17  A    between atoms: _36  and  _37
REMARK   18  A    between atoms: _42  and  _43
REMARK   19  A    between atoms: _45  and  _47
REMARK   20  A    between atoms: _47  and  _48
REMARK   21  A    between atoms: _47  and  _50
REMARK   22  A    between atoms: _50  and  _51
REMARK   23  A    between atoms: _54  and  _56
REMARK   24  A    between atoms: _56  and  _57
REMARK   25  A    between atoms: _56  and  _59
REMARK   26  A    between atoms: _62  and  _64
REMARK   27  A    between atoms: _64  and  _65
REMARK   28  A    between atoms: _64  and  _67
REMARK   29  A    between atoms: _67  and  _68
REMARK   30  A    between atoms: _71  and  _73
REMARK   31  A    between atoms: _73  and  _74
REMARK   32  A    between atoms: _73  and  _76
REMARK   33  A    between atoms: _76  and  _77
REMARK   34  A    between atoms: _80  and  _82
REMARK   35  A    between atoms: _82  and  _83
REMARK   36  A    between atoms: _85  and  _87
REMARK   37  A    between atoms: _87  and  _88
REMARK   38  A    between atoms: _87  and  _90
REMARK   39  A    between atoms: _90  and  _91
REMARK   40  A    between atoms: _93  and  _95
REMARK   41  A    between atoms: _95  and  _96
REMARK   42  A    between atoms: _95  and  _98
REMARK   43  A    between atoms: _98  and  _99
REMARK   44  A    between atoms: _101  and  _103
REMARK   45  A    between atoms: _103  and  _104
REMARK   46  A    between atoms: _103  and  _106
REMARK   47  A    between atoms: _106  and  _107
REMARK   48  A    between atoms: _112  and  _114
REMARK   49  A    between atoms: _114  and  _115
REMARK   50  A    between atoms: _114  and  _117
REMARK   51  A    between atoms: _117  and  _118
REMARK   52  A    between atoms: _124  and  _126
REMARK   53  A    between atoms: _126  and  _127
REMARK   54  A    between atoms: _126  and  _129
REMARK   55  A    between atoms: _133  and  _134
REMARK   56  A    between atoms: _139  and  _141
REMARK   57  A    between atoms: _141  and  _142
REMARK   58  A    between atoms: _141  and  _144
REMARK   59  A    between atoms: _144  and  _145
REMARK   60  A    between atoms: _150  and  _151
REMARK   61  A    between atoms: _153  and  _155
REMARK   62  A    between atoms: _155  and  _156
REMARK   63  A    between atoms: _155  and  _158
REMARK   64  A    between atoms: _158  and  _159
REMARK   65  A    between atoms: _162  and  _164
REMARK   66  A    between atoms: _164  and  _165
REMARK   67  A    between atoms: _164  and  _167
REMARK   68  A    between atoms: _167  and  _168
REMARK   69  A    between atoms: _168  and  _169
REMARK   70  A    between atoms: _174  and  _176
REMARK   71  A    between atoms: _176  and  _177
REMARK   72  A    between atoms: _179  and  _181
REMARK   73  A    between atoms: _181  and  _182
REMARK   74  A    between atoms: _181  and  _184
REMARK   75  A    between atoms: _184  and  _185
REMARK   76  A    between atoms: _185  and  _186
REMARK   77  A    between atoms: _186  and  _187
REMARK   78  A    between atoms: _187  and  _188
REMARK   79  A    between atoms: _192  and  _194
REMARK   80  A    between atoms: _194  and  _195
REMARK   81  A    between atoms: _194  and  _197
REMARK   82  A    between atoms: _197  and  _198
REMARK   83  A    between atoms: _208  and  _210
REMARK   84  A    between atoms: _210  and  _211
REMARK   85  A    between atoms: _210  and  _213
REMARK   86  A    between atoms: _213  and  _214
REMARK   87  A    between atoms: _217  and  _219
REMARK   88  A    between atoms: _219  and  _220
REMARK   89  A    between atoms: _219  and  _222
REMARK   90  A    between atoms: _222  and  _223
REMARK   91  A    between atoms: _223  and  _224
REMARK   92  A    between atoms: _224  and  _225
REMARK   93  A    between atoms: _225  and  _226
REMARK   94  A    between atoms: _230  and  _232
REMARK   95  A    between atoms: _232  and  _233
REMARK   96  A    between atoms: _232  and  _235
REMARK   97  A    between atoms: _235  and  _236
REMARK   98  A    between atoms: _242  and  _244
REMARK   99  A    between atoms: _244  and  _245
REMARK  100  A    between atoms: _244  and  _247
REMARK  101  A    between atoms: _247  and  _248
REMARK  102  A    between atoms: _254  and  _256
REMARK  103  A    between atoms: _256  and  _257
REMARK  104  A    between atoms: _256  and  _259
REMARK  105  A    between atoms: _259  and  _260
REMARK  106  A    between atoms: _263  and  _265
REMARK  107  A    between atoms: _265  and  _266
REMARK  108  A    between atoms: _265  and  _268
REMARK  109  A    between atoms: _268  and  _269
REMARK  110  A    between atoms: _274  and  _276
REMARK  111  A    between atoms: _276  and  _277
REMARK  112  A    between atoms: _276  and  _279
REMARK  113  A    between atoms: _279  and  _280
REMARK  114  A    between atoms: _282  and  _284
REMARK  115  A    between atoms: _284  and  _285
REMARK  116  A    between atoms: _284  and  _287
REMARK  117  A    between atoms: _287  and  _288
REMARK  118  A    between atoms: _298  and  _300
REMARK  119  A    between atoms: _300  and  _301
REMARK  120  A    between atoms: _303  and  _305
REMARK  121  A    between atoms: _305  and  _306
REMARK  122  A    between atoms: _305  and  _308
REMARK  123  A    between atoms: _308  and  _309
REMARK  124  A    between atoms: _312  and  _314
REMARK  125  A    between atoms: _314  and  _315
REMARK  126  A    between atoms: _314  and  _317
REMARK  127  A    between atoms: _317  and  _318
REMARK  128  A    between atoms: _321  and  _323
REMARK  129  A    between atoms: _323  and  _324
REMARK  130  A    between atoms: _326  and  _328
REMARK  131  A    between atoms: _328  and  _329
REMARK  132  A    between atoms: _328  and  _331
REMARK  133  A    between atoms: _331  and  _332
REMARK  134  A    between atoms: _335  and  _337
REMARK  135  A    between atoms: _337  and  _338
REMARK  136  A    between atoms: _341  and  _343
REMARK  137  A    between atoms: _343  and  _344
REMARK  138  A    between atoms: _343  and  _346
REMARK  139  A    between atoms: _346  and  _347
REMARK  140  A    between atoms: _350  and  _352
REMARK  141  A    between atoms: _352  and  _353
REMARK  142  A    between atoms: _352  and  _355
REMARK  143  A    between atoms: _355  and  _356
REMARK  144  A    between atoms: _361  and  _362
REMARK  145  A    between atoms: _364  and  _366
REMARK  146  A    between atoms: _366  and  _367
REMARK  147  A    between atoms: _366  and  _369
REMARK  148  A    between atoms: _369  and  _370
REMARK  149  A    between atoms: _375  and  _376
REMARK  150  A    between atoms: _378  and  _380
REMARK  151  A    between atoms: _380  and  _381
REMARK  152  A    between atoms: _380  and  _383
REMARK  153  A    between atoms: _383  and  _384
REMARK  154  A    between atoms: _387  and  _389
REMARK  155  A    between atoms: _389  and  _390
REMARK  156  A    between atoms: _389  and  _392
REMARK  157  A    between atoms: _392  and  _393
REMARK  158  A    between atoms: _393  and  _394
REMARK  159  A    between atoms: _394  and  _395
REMARK  160  A    between atoms: _395  and  _396
REMARK  161  A    between atoms: _400  and  _402
REMARK  162  A    between atoms: _402  and  _403
REMARK  163  A    between atoms: _402  and  _405
REMARK  164  A    between atoms: _405  and  _406
REMARK  165  A    between atoms: _409  and  _411
REMARK  166  A    between atoms: _411  and  _412
REMARK  167  A    between atoms: _411  and  _414
REMARK  168  A    between atoms: _417  and  _419
REMARK  169  A    between atoms: _419  and  _420
REMARK  170  A    between atoms: _419  and  _422
REMARK  171  A    between atoms: _422  and  _423
REMARK  172  A    between atoms: _426  and  _428
REMARK  173  A    between atoms: _428  and  _429
REMARK  174  A    between atoms: _428  and  _431
REMARK  175  A    between atoms: _431  and  _432
REMARK  176  A    between atoms: _434  and  _436
REMARK  177  A    between atoms: _436  and  _437
REMARK  178  A    between atoms: _439  and  _441
REMARK  179  A    between atoms: _441  and  _442
REMARK  180  A    between atoms: _441  and  _444
REMARK  181  A    between atoms: _444  and  _445
REMARK  182  A    between atoms: _448  and  _450
REMARK  183  A    between atoms: _450  and  _451
REMARK  184  A    between atoms: _450  and  _453
REMARK  185  A    between atoms: _453  and  _454
REMARK  186  A    between atoms: _457  and  _459
REMARK  187  A    between atoms: _459  and  _460
REMARK  188  A    between atoms: _459  and  _462
REMARK  189  A    between atoms: _462  and  _463
REMARK  190  A    between atoms: _468  and  _470
REMARK  191  A    between atoms: _470  and  _471
REMARK  192  A    between atoms: _470  and  _473
REMARK  193  A    between atoms: _473  and  _474
REMARK  194  A    between atoms: _474  and  _475
REMARK  195  A    between atoms: _475  and  _476
REMARK  196  A    between atoms: _485  and  _487
REMARK  197  A    between atoms: _487  and  _488
REMARK  198  A    between atoms: _487  and  _490
REMARK  199  A    between atoms: _490  and  _491
REMARK  200  A    between atoms: _493  and  _495
REMARK  201  A    between atoms: _495  and  _496
REMARK  202  A    between atoms: _495  and  _498
REMARK  203  A    between atoms: _498  and  _499
REMARK  204  A    between atoms: _499  and  _500
REMARK  205  A    between atoms: _505  and  _507
REMARK  206  A    between atoms: _507  and  _508
REMARK  207  A    between atoms: _507  and  _510
REMARK  208  A    between atoms: _510  and  _511
REMARK  209  A    between atoms: _513  and  _515
REMARK  210  A    between atoms: _515  and  _516
REMARK  211  A    between atoms: _515  and  _518
REMARK  212  A    between atoms: _518  and  _519
REMARK  213  A    between atoms: _521  and  _523
REMARK  214  A    between atoms: _523  and  _524
REMARK  215  A    between atoms: _523  and  _526
REMARK  216  A    between atoms: _526  and  _527
REMARK  217  A    between atoms: _530  and  _532
REMARK  218  A    between atoms: _532  and  _533
REMARK  219  A    between atoms: _535  and  _537
REMARK  220  A    between atoms: _537  and  _538
REMARK  221  A    between atoms: _537  and  _540
REMARK  222  A    between atoms: _540  and  _541
REMARK  223  A    between atoms: _544  and  _546
REMARK  224  A    between atoms: _546  and  _547
REMARK  225  A    between atoms: _546  and  _549
REMARK  226  A    between atoms: _552  and  _554
REMARK  227  A    between atoms: _554  and  _555
REMARK  228  A    between atoms: _554  and  _557
REMARK  229  A    between atoms: _557  and  _558
REMARK  230  A    between atoms: _558  and  _559
REMARK                            x       y       z     vdW  Elec       q    Type
REMARK                         _______ _______ _______ _____ _____    ______ ____
ROOT
ATOM      1  O   HOH     1      -6.580  21.206  39.863  0.00  0.00    +0.000 OA
ENDROOT
TORSDOF 0
REMARK  Name = ../refined-set-2016/4fsl/4fsl_pocket.pdb
REMARK  230 active torsions:
REMARK  status: ('A' for Active; 'I' for Inactive)
REMARK    1  A    between atoms: _1  and  _3
REMARK    2  A    between atoms: _3  and  _4
REMARK    3  A    between atoms: _3  and  _6
REMARK    4  A    between atoms: _6  and  _7
REMARK    5  A    between atoms: _9  and  _11
REMARK    6  A    between atoms: _11  and  _12
REMARK    7  A    between atoms: _14  and  _16
REMARK    8  A    between atoms: _16  and  _17
REMARK    9  A    between atoms: _16  and  _19
REMARK   10  A    between atoms: _19  and  _20
REMARK   11  A    between atoms: _20  and  _21
REMARK   12  A    between atoms: _26  and  _28
REMARK   13  A    between atoms: _28  and  _29
REMARK   14  A    between atoms: _31  and  _33
REMARK   15  A    between atoms: _33  and  _34
REMARK   16  A    between atoms: _33  and  _36
REMARK   17  A    between atoms: _36  and  _37
REMARK   18  A    between atoms: _42  and  _43
REMARK   19  A    between atoms: _45  and  _47
REMARK   20  A    between atoms: _47  and  _48
REMARK   21  A    between atoms: _47  and  _50
REMARK   22  A    between atoms: _50  and  _51
REMARK   23  A    between atoms: _54  and  _56
REMARK   24  A    between atoms: _56  and  _57
REMARK   25  A    between atoms: _56  and  _59
REMARK   26  A    between atoms: _62  and  _64
REMARK   27  A    between atoms: _64  and  _65
REMARK   28  A    between atoms: _64  and  _67
REMARK   29  A    between atoms: _67  and  _68
REMARK   30  A    between atoms: _71  and  _73
REMARK   31  A    between atoms: _73  and  _74
REMARK   32  A    between atoms: _73  and  _76
REMARK   33  A    between atoms: _76  and  _77
REMARK   34  A    between atoms: _80  and  _82
REMARK   35  A    between atoms: _82  and  _83
REMARK   36  A    between atoms: _85  and  _87
REMARK   37  A    between atoms: _87  and  _88
REMARK   38  A    between atoms: _87  and  _90
REMARK   39  A    between atoms: _90  and  _91
REMARK   40  A    between atoms: _93  and  _95
REMARK   41  A    between atoms: _95  and  _96
REMARK   42  A    between atoms: _95  and  _98
REMARK   43  A    between atoms: _98  and  _99
REMARK   44  A    between atoms: _101  and  _103
REMARK   45  A    between atoms: _103  and  _104
REMARK   46  A    between atoms: _103  and  _106
REMARK   47  A    between atoms: _106  and  _107
REMARK   48  A    between atoms: _112  and  _114
REMARK   49  A    between atoms: _114  and  _115
REMARK   50  A    between atoms: _114  and  _117
REMARK   51  A    between atoms: _117  and  _118
REMARK   52  A    between atoms: _124  and  _126
REMARK   53  A    between atoms: _126  and  _127
REMARK   54  A    between atoms: _126  and  _129
REMARK   55  A    between atoms: _133  and  _134
REMARK   56  A    between atoms: _139  and  _141
REMARK   57  A    between atoms: _141  and  _142
REMARK   58  A    between atoms: _141  and  _144
REMARK   59  A    between atoms: _144  and  _145
REMARK   60  A    between atoms: _150  and  _151
REMARK   61  A    between atoms: _153  and  _155
REMARK   62  A    between atoms: _155  and  _156
REMARK   63  A    between atoms: _155  and  _158
REMARK   64  A    between atoms: _158  and  _159
REMARK   65  A    between atoms: _162  and  _164
REMARK   66  A    between atoms: _164  and  _165
REMARK   67  A    between atoms: _164  and  _167
REMARK   68  A    between atoms: _167  and  _168
REMARK   69  A    between atoms: _168  and  _169
REMARK   70  A    between atoms: _174  and  _176
REMARK   71  A    between atoms: _176  and  _177
REMARK   72  A    between atoms: _179  and  _181
REMARK   73  A    between atoms: _181  and  _182
REMARK   74  A    between atoms: _181  and  _184
REMARK   75  A    between atoms: _184  and  _185
REMARK   76  A    between atoms: _185  and  _186
REMARK   77  A    between atoms: _186  and  _187
REMARK   78  A    between atoms: _187  and  _188
REMARK   79  A    between atoms: _192  and  _194
REMARK   80  A    between atoms: _194  and  _195
REMARK   81  A    between atoms: _194  and  _197
REMARK   82  A    between atoms: _197  and  _198
REMARK   83  A    between atoms: _208  and  _210
REMARK   84  A    between atoms: _210  and  _211
REMARK   85  A    between atoms: _210  and  _213
REMARK   86  A    between atoms: _213  and  _214
REMARK   87  A    between atoms: _217  and  _219
REMARK   88  A    between atoms: _219  and  _220
REMARK   89  A    between atoms: _219  and  _222
REMARK   90  A    between atoms: _222  and  _223
REMARK   91  A    between atoms: _223  and  _224
REMARK   92  A    between atoms: _224  and  _225
REMARK   93  A    between atoms: _225  and  _226
REMARK   94  A    between atoms: _230  and  _232
REMARK   95  A    between atoms: _232  and  _233
REMARK   96  A    between atoms: _232  and  _235
REMARK   97  A    between atoms: _235  and  _236
REMARK   98  A    between atoms: _242  and  _244
REMARK   99  A    between atoms: _244  and  _245
REMARK  100  A    between atoms: _244  and  _247
REMARK  101  A    between atoms: _247  and  _248
REMARK  102  A    between atoms: _254  and  _256
REMARK  103  A    between atoms: _256  and  _257
REMARK  104  A    between atoms: _256  and  _259
REMARK  105  A    between atoms: _259  and  _260
REMARK  106  A    between atoms: _263  and  _265
REMARK  107  A    between atoms: _265  and  _266
REMARK  108  A    between atoms: _265  and  _268
REMARK  109  A    between atoms: _268  and  _269
REMARK  110  A    between atoms: _274  and  _276
REMARK  111  A    between atoms: _276  and  _277
REMARK  112  A    between atoms: _276  and  _279
REMARK  113  A    between atoms: _279  and  _280
REMARK  114  A    between atoms: _282  and  _284
REMARK  115  A    between atoms: _284  and  _285
REMARK  116  A    between atoms: _284  and  _287
REMARK  117  A    between atoms: _287  and  _288
REMARK  118  A    between atoms: _298  and  _300
REMARK  119  A    between atoms: _300  and  _301
REMARK  120  A    between atoms: _303  and  _305
REMARK  121  A    between atoms: _305  and  _306
REMARK  122  A    between atoms: _305  and  _308
REMARK  123  A    between atoms: _308  and  _309
REMARK  124  A    between atoms: _312  and  _314
REMARK  125  A    between atoms: _314  and  _315
REMARK  126  A    between atoms: _314  and  _317
REMARK  127  A    between atoms: _317  and  _318
REMARK  128  A    between atoms: _321  and  _323
REMARK  129  A    between atoms: _323  and  _324
REMARK  130  A    between atoms: _326  and  _328
REMARK  131  A    between atoms: _328  and  _329
REMARK  132  A    between atoms: _328  and  _331
REMARK  133  A    between atoms: _331  and  _332
REMARK  134  A    between atoms: _335  and  _337
REMARK  135  A    between atoms: _337  and  _338
REMARK  136  A    between atoms: _341  and  _343
REMARK  137  A    between atoms: _343  and  _344
REMARK  138  A    between atoms: _343  and  _346
REMARK  139  A    between atoms: _346  and  _347
REMARK  140  A    between atoms: _350  and  _352
REMARK  141  A    between atoms: _352  and  _353
REMARK  142  A    between atoms: _352  and  _355
REMARK  143  A    between atoms: _355  and  _356
REMARK  144  A    between atoms: _361  and  _362
REMARK  145  A    between atoms: _364  and  _366
REMARK  146  A    between atoms: _366  and  _367
REMARK  147  A    between atoms: _366  and  _369
REMARK  148  A    between atoms: _369  and  _370
REMARK  149  A    between atoms: _375  and  _376
REMARK  150  A    between atoms: _378  and  _380
REMARK  151  A    between atoms: _380  and  _381
REMARK  152  A    between atoms: _380  and  _383
REMARK  153  A    between atoms: _383  and  _384
REMARK  154  A    between atoms: _387  and  _389
REMARK  155  A    between atoms: _389  and  _390
REMARK  156  A    between atoms: _389  and  _392
REMARK  157  A    between atoms: _392  and  _393
REMARK  158  A    between atoms: _393  and  _394
REMARK  159  A    between atoms: _394  and  _395
REMARK  160  A    between atoms: _395  and  _396
REMARK  161  A    between atoms: _400  and  _402
REMARK  162  A    between atoms: _402  and  _403
REMARK  163  A    between atoms: _402  and  _405
REMARK  164  A    between atoms: _405  and  _406
REMARK  165  A    between atoms: _409  and  _411
REMARK  166  A    between atoms: _411  and  _412
REMARK  167  A    between atoms: _411  and  _414
REMARK  168  A    between atoms: _417  and  _419
REMARK  169  A    between atoms: _419  and  _420
REMARK  170  A    between atoms: _419  and  _422
REMARK  171  A    between atoms: _422  and  _423
REMARK  172  A    between atoms: _426  and  _428
REMARK  173  A    between atoms: _428  and  _429
REMARK  174  A    between atoms: _428  and  _431
REMARK  175  A    between atoms: _431  and  _432
REMARK  176  A    between atoms: _434  and  _436
REMARK  177  A    between atoms: _436  and  _437
REMARK  178  A    between atoms: _439  and  _441
REMARK  179  A    between atoms: _441  and  _442
REMARK  180  A    between atoms: _441  and  _444
REMARK  181  A    between atoms: _444  and  _445
REMARK  182  A    between atoms: _448  and  _450
REMARK  183  A    between atoms: _450  and  _451
REMARK  184  A    between atoms: _450  and  _453
REMARK  185  A    between atoms: _453  and  _454
REMARK  186  A    between atoms: _457  and  _459
REMARK  187  A    between atoms: _459  and  _460
REMARK  188  A    between atoms: _459  and  _462
REMARK  189  A    between atoms: _462  and  _463
REMARK  190  A    between atoms: _468  and  _470
REMARK  191  A    between atoms: _470  and  _471
REMARK  192  A    between atoms: _470  and  _473
REMARK  193  A    between atoms: _473  and  _474
REMARK  194  A    between atoms: _474  and  _475
REMARK  195  A    between atoms: _475  and  _476
REMARK  196  A    between atoms: _485  and  _487
REMARK  197  A    between atoms: _487  and  _488
REMARK  198  A    between atoms: _487  and  _490
REMARK  199  A    between atoms: _490  and  _491
REMARK  200  A    between atoms: _493  and  _495
REMARK  201  A    between atoms: _495  and  _496
REMARK  202  A    between atoms: _495  and  _498
REMARK  203  A    between atoms: _498  and  _499
REMARK  204  A    between atoms: _499  and  _500
REMARK  205  A    between atoms: _505  and  _507
REMARK  206  A    between atoms: _507  and  _508
REMARK  207  A    between atoms: _507  and  _510
REMARK  208  A    between atoms: _510  and  _511
REMARK  209  A    between atoms: _513  and  _515
REMARK  210  A    between atoms: _515  and  _516
REMARK  211  A    between atoms: _515  and  _518
REMARK  212  A    between atoms: _518  and  _519
REMARK  213  A    between atoms: _521  and  _523
REMARK  214  A    between atoms: _523  and  _524
REMARK  215  A    between atoms: _523  and  _526
REMARK  216  A    between atoms: _526  and  _527
REMARK  217  A    between atoms: _530  and  _532
REMARK  218  A    between atoms: _532  and  _533
REMARK  219  A    between atoms: _535  and  _537
REMARK  220  A    between atoms: _537  and  _538
REMARK  221  A    between atoms: _537  and  _540
REMARK  222  A    between atoms: _540  and  _541
REMARK  223  A    between atoms: _544  and  _546
REMARK  224  A    between atoms: _546  and  _547
REMARK  225  A    between atoms: _546  and  _549
REMARK  226  A    between atoms: _552  and  _554
REMARK  227  A    between atoms: _554  and  _555
REMARK  228  A    between atoms: _554  and  _557
REMARK  229  A    between atoms: _557  and  _558
REMARK  230  A    between atoms: _558  and  _559
REMARK                            x       y       z     vdW  Elec       q    Type
REMARK                         _______ _______ _______ _____ _____    ______ ____
ROOT
ATOM      1  O   HOH     1     -13.496  12.263  32.493  0.00  0.00    +0.000 OA
ENDROOT
TORSDOF 0
REMARK  Name = ../refined-set-2016/4fsl/4fsl_pocket.pdb
REMARK  230 active torsions:
REMARK  status: ('A' for Active; 'I' for Inactive)
REMARK    1  A    between atoms: _1  and  _3
REMARK    2  A    between atoms: _3  and  _4
REMARK    3  A    between atoms: _3  and  _6
REMARK    4  A    between atoms: _6  and  _7
REMARK    5  A    between atoms: _9  and  _11
REMARK    6  A    between atoms: _11  and  _12
REMARK    7  A    between atoms: _14  and  _16
REMARK    8  A    between atoms: _16  and  _17
REMARK    9  A    between atoms: _16  and  _19
REMARK   10  A    between atoms: _19  and  _20
REMARK   11  A    between atoms: _20  and  _21
REMARK   12  A    between atoms: _26  and  _28
REMARK   13  A    between atoms: _28  and  _29
REMARK   14  A    between atoms: _31  and  _33
REMARK   15  A    between atoms: _33  and  _34
REMARK   16  A    between atoms: _33  and  _36
REMARK   17  A    between atoms: _36  and  _37
REMARK   18  A    between atoms: _42  and  _43
REMARK   19  A    between atoms: _45  and  _47
REMARK   20  A    between atoms: _47  and  _48
REMARK   21  A    between atoms: _47  and  _50
REMARK   22  A    between atoms: _50  and  _51
REMARK   23  A    between atoms: _54  and  _56
REMARK   24  A    between atoms: _56  and  _57
REMARK   25  A    between atoms: _56  and  _59
REMARK   26  A    between atoms: _62  and  _64
REMARK   27  A    between atoms: _64  and  _65
REMARK   28  A    between atoms: _64  and  _67
REMARK   29  A    between atoms: _67  and  _68
REMARK   30  A    between atoms: _71  and  _73
REMARK   31  A    between atoms: _73  and  _74
REMARK   32  A    between atoms: _73  and  _76
REMARK   33  A    between atoms: _76  and  _77
REMARK   34  A    between atoms: _80  and  _82
REMARK   35  A    between atoms: _82  and  _83
REMARK   36  A    between atoms: _85  and  _87
REMARK   37  A    between atoms: _87  and  _88
REMARK   38  A    between atoms: _87  and  _90
REMARK   39  A    between atoms: _90  and  _91
REMARK   40  A    between atoms: _93  and  _95
REMARK   41  A    between atoms: _95  and  _96
REMARK   42  A    between atoms: _95  and  _98
REMARK   43  A    between atoms: _98  and  _99
REMARK   44  A    between atoms: _101  and  _103
REMARK   45  A    between atoms: _103  and  _104
REMARK   46  A    between atoms: _103  and  _106
REMARK   47  A    between atoms: _106  and  _107
REMARK   48  A    between atoms: _112  and  _114
REMARK   49  A    between atoms: _114  and  _115
REMARK   50  A    between atoms: _114  and  _117
REMARK   51  A    between atoms: _117  and  _118
REMARK   52  A    between atoms: _124  and  _126
REMARK   53  A    between atoms: _126  and  _127
REMARK   54  A    between atoms: _126  and  _129
REMARK   55  A    between atoms: _133  and  _134
REMARK   56  A    between atoms: _139  and  _141
REMARK   57  A    between atoms: _141  and  _142
REMARK   58  A    between atoms: _141  and  _144
REMARK   59  A    between atoms: _144  and  _145
REMARK   60  A    between atoms: _150  and  _151
REMARK   61  A    between atoms: _153  and  _155
REMARK   62  A    between atoms: _155  and  _156
REMARK   63  A    between atoms: _155  and  _158
REMARK   64  A    between atoms: _158  and  _159
REMARK   65  A    between atoms: _162  and  _164
REMARK   66  A    between atoms: _164  and  _165
REMARK   67  A    between atoms: _164  and  _167
REMARK   68  A    between atoms: _167  and  _168
REMARK   69  A    between atoms: _168  and  _169
REMARK   70  A    between atoms: _174  and  _176
REMARK   71  A    between atoms: _176  and  _177
REMARK   72  A    between atoms: _179  and  _181
REMARK   73  A    between atoms: _181  and  _182
REMARK   74  A    between atoms: _181  and  _184
REMARK   75  A    between atoms: _184  and  _185
REMARK   76  A    between atoms: _185  and  _186
REMARK   77  A    between atoms: _186  and  _187
REMARK   78  A    between atoms: _187  and  _188
REMARK   79  A    between atoms: _192  and  _194
REMARK   80  A    between atoms: _194  and  _195
REMARK   81  A    between atoms: _194  and  _197
REMARK   82  A    between atoms: _197  and  _198
REMARK   83  A    between atoms: _208  and  _210
REMARK   84  A    between atoms: _210  and  _211
REMARK   85  A    between atoms: _210  and  _213
REMARK   86  A    between atoms: _213  and  _214
REMARK   87  A    between atoms: _217  and  _219
REMARK   88  A    between atoms: _219  and  _220
REMARK   89  A    between atoms: _219  and  _222
REMARK   90  A    between atoms: _222  and  _223
REMARK   91  A    between atoms: _223  and  _224
REMARK   92  A    between atoms: _224  and  _225
REMARK   93  A    between atoms: _225  and  _226
REMARK   94  A    between atoms: _230  and  _232
REMARK   95  A    between atoms: _232  and  _233
REMARK   96  A    between atoms: _232  and  _235
REMARK   97  A    between atoms: _235  and  _236
REMARK   98  A    between atoms: _242  and  _244
REMARK   99  A    between atoms: _244  and  _245
REMARK  100  A    between atoms: _244  and  _247
REMARK  101  A    between atoms: _247  and  _248
REMARK  102  A    between atoms: _254  and  _256
REMARK  103  A    between atoms: _256  and  _257
REMARK  104  A    between atoms: _256  and  _259
REMARK  105  A    between atoms: _259  and  _260
REMARK  106  A    between atoms: _263  and  _265
REMARK  107  A    between atoms: _265  and  _266
REMARK  108  A    between atoms: _265  and  _268
REMARK  109  A    between atoms: _268  and  _269
REMARK  110  A    between atoms: _274  and  _276
REMARK  111  A    between atoms: _276  and  _277
REMARK  112  A    between atoms: _276  and  _279
REMARK  113  A    between atoms: _279  and  _280
REMARK  114  A    between atoms: _282  and  _284
REMARK  115  A    between atoms: _284  and  _285
REMARK  116  A    between atoms: _284  and  _287
REMARK  117  A    between atoms: _287  and  _288
REMARK  118  A    between atoms: _298  and  _300
REMARK  119  A    between atoms: _300  and  _301
REMARK  120  A    between atoms: _303  and  _305
REMARK  121  A    between atoms: _305  and  _306
REMARK  122  A    between atoms: _305  and  _308
REMARK  123  A    between atoms: _308  and  _309
REMARK  124  A    between atoms: _312  and  _314
REMARK  125  A    between atoms: _314  and  _315
REMARK  126  A    between atoms: _314  and  _317
REMARK  127  A    between atoms: _317  and  _318
REMARK  128  A    between atoms: _321  and  _323
REMARK  129  A    between atoms: _323  and  _324
REMARK  130  A    between atoms: _326  and  _328
REMARK  131  A    between atoms: _328  and  _329
REMARK  132  A    between atoms: _328  and  _331
REMARK  133  A    between atoms: _331  and  _332
REMARK  134  A    between atoms: _335  and  _337
REMARK  135  A    between atoms: _337  and  _338
REMARK  136  A    between atoms: _341  and  _343
REMARK  137  A    between atoms: _343  and  _344
REMARK  138  A    between atoms: _343  and  _346
REMARK  139  A    between atoms: _346  and  _347
REMARK  140  A    between atoms: _350  and  _352
REMARK  141  A    between atoms: _352  and  _353
REMARK  142  A    between atoms: _352  and  _355
REMARK  143  A    between atoms: _355  and  _356
REMARK  144  A    between atoms: _361  and  _362
REMARK  145  A    between atoms: _364  and  _366
REMARK  146  A    between atoms: _366  and  _367
REMARK  147  A    between atoms: _366  and  _369
REMARK  148  A    between atoms: _369  and  _370
REMARK  149  A    between atoms: _375  and  _376
REMARK  150  A    between atoms: _378  and  _380
REMARK  151  A    between atoms: _380  and  _381
REMARK  152  A    between atoms: _380  and  _383
REMARK  153  A    between atoms: _383  and  _384
REMARK  154  A    between atoms: _387  and  _389
REMARK  155  A    between atoms: _389  and  _390
REMARK  156  A    between atoms: _389  and  _392
REMARK  157  A    between atoms: _392  and  _393
REMARK  158  A    between atoms: _393  and  _394
REMARK  159  A    between atoms: _394  and  _395
REMARK  160  A    between atoms: _395  and  _396
REMARK  161  A    between atoms: _400  and  _402
REMARK  162  A    between atoms: _402  and  _403
REMARK  163  A    between atoms: _402  and  _405
REMARK  164  A    between atoms: _405  and  _406
REMARK  165  A    between atoms: _409  and  _411
REMARK  166  A    between atoms: _411  and  _412
REMARK  167  A    between atoms: _411  and  _414
REMARK  168  A    between atoms: _417  and  _419
REMARK  169  A    between atoms: _419  and  _420
REMARK  170  A    between atoms: _419  and  _422
REMARK  171  A    between atoms: _422  and  _423
REMARK  172  A    between atoms: _426  and  _428
REMARK  173  A    between atoms: _428  and  _429
REMARK  174  A    between atoms: _428  and  _431
REMARK  175  A    between atoms: _431  and  _432
REMARK  176  A    between atoms: _434  and  _436
REMARK  177  A    between atoms: _436  and  _437
REMARK  178  A    between atoms: _439  and  _441
REMARK  179  A    between atoms: _441  and  _442
REMARK  180  A    between atoms: _441  and  _444
REMARK  181  A    between atoms: _444  and  _445
REMARK  182  A    between atoms: _448  and  _450
REMARK  183  A    between atoms: _450  and  _451
REMARK  184  A    between atoms: _450  and  _453
REMARK  185  A    between atoms: _453  and  _454
REMARK  186  A    between atoms: _457  and  _459
REMARK  187  A    between atoms: _459  and  _460
REMARK  188  A    between atoms: _459  and  _462
REMARK  189  A    between atoms: _462  and  _463
REMARK  190  A    between atoms: _468  and  _470
REMARK  191  A    between atoms: _470  and  _471
REMARK  192  A    between atoms: _470  and  _473
REMARK  193  A    between atoms: _473  and  _474
REMARK  194  A    between atoms: _474  and  _475
REMARK  195  A    between atoms: _475  and  _476
REMARK  196  A    between atoms: _485  and  _487
REMARK  197  A    between atoms: _487  and  _488
REMARK  198  A    between atoms: _487  and  _490
REMARK  199  A    between atoms: _490  and  _491
REMARK  200  A    between atoms: _493  and  _495
REMARK  201  A    between atoms: _495  and  _496
REMARK  202  A    between atoms: _495  and  _498
REMARK  203  A    between atoms: _498  and  _499
REMARK  204  A    between atoms: _499  and  _500
REMARK  205  A    between atoms: _505  and  _507
REMARK  206  A    between atoms: _507  and  _508
REMARK  207  A    between atoms: _507  and  _510
REMARK  208  A    between atoms: _510  and  _511
REMARK  209  A    between atoms: _513  and  _515
REMARK  210  A    between atoms: _515  and  _516
REMARK  211  A    between atoms: _515  and  _518
REMARK  212  A    between atoms: _518  and  _519
REMARK  213  A    between atoms: _521  and  _523
REMARK  214  A    between atoms: _523  and  _524
REMARK  215  A    between atoms: _523  and  _526
REMARK  216  A    between atoms: _526  and  _527
REMARK  217  A    between atoms: _530  and  _532
REMARK  218  A    between atoms: _532  and  _533
REMARK  219  A    between atoms: _535  and  _537
REMARK  220  A    between atoms: _537  and  _538
REMARK  221  A    between atoms: _537  and  _540
REMARK  222  A    between atoms: _540  and  _541
REMARK  223  A    between atoms: _544  and  _546
REMARK  224  A    between atoms: _546  and  _547
REMARK  225  A    between atoms: _546  and  _549
REMARK  226  A    between atoms: _552  and  _554
REMARK  227  A    between atoms: _554  and  _555
REMARK  228  A    between atoms: _554  and  _557
REMARK  229  A    between atoms: _557  and  _558
REMARK  230  A    between atoms: _558  and  _559
REMARK                            x       y       z     vdW  Elec       q    Type
REMARK                         _______ _______ _______ _____ _____    ______ ____
ROOT
ATOM      1  O   HOH     1      -8.782   9.572  37.332  0.00  0.00    +0.000 OA
ENDROOT
TORSDOF 0
REMARK  Name = ../refined-set-2016/4fsl/4fsl_pocket.pdb
REMARK  230 active torsions:
REMARK  status: ('A' for Active; 'I' for Inactive)
REMARK    1  A    between atoms: _1  and  _3
REMARK    2  A    between atoms: _3  and  _4
REMARK    3  A    between atoms: _3  and  _6
REMARK    4  A    between atoms: _6  and  _7
REMARK    5  A    between atoms: _9  and  _11
REMARK    6  A    between atoms: _11  and  _12
REMARK    7  A    between atoms: _14  and  _16
REMARK    8  A    between atoms: _16  and  _17
REMARK    9  A    between atoms: _16  and  _19
REMARK   10  A    between atoms: _19  and  _20
REMARK   11  A    between atoms: _20  and  _21
REMARK   12  A    between atoms: _26  and  _28
REMARK   13  A    between atoms: _28  and  _29
REMARK   14  A    between atoms: _31  and  _33
REMARK   15  A    between atoms: _33  and  _34
REMARK   16  A    between atoms: _33  and  _36
REMARK   17  A    between atoms: _36  and  _37
REMARK   18  A    between atoms: _42  and  _43
REMARK   19  A    between atoms: _45  and  _47
REMARK   20  A    between atoms: _47  and  _48
REMARK   21  A    between atoms: _47  and  _50
REMARK   22  A    between atoms: _50  and  _51
REMARK   23  A    between atoms: _54  and  _56
REMARK   24  A    between atoms: _56  and  _57
REMARK   25  A    between atoms: _56  and  _59
REMARK   26  A    between atoms: _62  and  _64
REMARK   27  A    between atoms: _64  and  _65
REMARK   28  A    between atoms: _64  and  _67
REMARK   29  A    between atoms: _67  and  _68
REMARK   30  A    between atoms: _71  and  _73
REMARK   31  A    between atoms: _73  and  _74
REMARK   32  A    between atoms: _73  and  _76
REMARK   33  A    between atoms: _76  and  _77
REMARK   34  A    between atoms: _80  and  _82
REMARK   35  A    between atoms: _82  and  _83
REMARK   36  A    between atoms: _85  and  _87
REMARK   37  A    between atoms: _87  and  _88
REMARK   38  A    between atoms: _87  and  _90
REMARK   39  A    between atoms: _90  and  _91
REMARK   40  A    between atoms: _93  and  _95
REMARK   41  A    between atoms: _95  and  _96
REMARK   42  A    between atoms: _95  and  _98
REMARK   43  A    between atoms: _98  and  _99
REMARK   44  A    between atoms: _101  and  _103
REMARK   45  A    between atoms: _103  and  _104
REMARK   46  A    between atoms: _103  and  _106
REMARK   47  A    between atoms: _106  and  _107
REMARK   48  A    between atoms: _112  and  _114
REMARK   49  A    between atoms: _114  and  _115
REMARK   50  A    between atoms: _114  and  _117
REMARK   51  A    between atoms: _117  and  _118
REMARK   52  A    between atoms: _124  and  _126
REMARK   53  A    between atoms: _126  and  _127
REMARK   54  A    between atoms: _126  and  _129
REMARK   55  A    between atoms: _133  and  _134
REMARK   56  A    between atoms: _139  and  _141
REMARK   57  A    between atoms: _141  and  _142
REMARK   58  A    between atoms: _141  and  _144
REMARK   59  A    between atoms: _144  and  _145
REMARK   60  A    between atoms: _150  and  _151
REMARK   61  A    between atoms: _153  and  _155
REMARK   62  A    between atoms: _155  and  _156
REMARK   63  A    between atoms: _155  and  _158
REMARK   64  A    between atoms: _158  and  _159
REMARK   65  A    between atoms: _162  and  _164
REMARK   66  A    between atoms: _164  and  _165
REMARK   67  A    between atoms: _164  and  _167
REMARK   68  A    between atoms: _167  and  _168
REMARK   69  A    between atoms: _168  and  _169
REMARK   70  A    between atoms: _174  and  _176
REMARK   71  A    between atoms: _176  and  _177
REMARK   72  A    between atoms: _179  and  _181
REMARK   73  A    between atoms: _181  and  _182
REMARK   74  A    between atoms: _181  and  _184
REMARK   75  A    between atoms: _184  and  _185
REMARK   76  A    between atoms: _185  and  _186
REMARK   77  A    between atoms: _186  and  _187
REMARK   78  A    between atoms: _187  and  _188
REMARK   79  A    between atoms: _192  and  _194
REMARK   80  A    between atoms: _194  and  _195
REMARK   81  A    between atoms: _194  and  _197
REMARK   82  A    between atoms: _197  and  _198
REMARK   83  A    between atoms: _208  and  _210
REMARK   84  A    between atoms: _210  and  _211
REMARK   85  A    between atoms: _210  and  _213
REMARK   86  A    between atoms: _213  and  _214
REMARK   87  A    between atoms: _217  and  _219
REMARK   88  A    between atoms: _219  and  _220
REMARK   89  A    between atoms: _219  and  _222
REMARK   90  A    between atoms: _222  and  _223
REMARK   91  A    between atoms: _223  and  _224
REMARK   92  A    between atoms: _224  and  _225
REMARK   93  A    between atoms: _225  and  _226
REMARK   94  A    between atoms: _230  and  _232
REMARK   95  A    between atoms: _232  and  _233
REMARK   96  A    between atoms: _232  and  _235
REMARK   97  A    between atoms: _235  and  _236
REMARK   98  A    between atoms: _242  and  _244
REMARK   99  A    between atoms: _244  and  _245
REMARK  100  A    between atoms: _244  and  _247
REMARK  101  A    between atoms: _247  and  _248
REMARK  102  A    between atoms: _254  and  _256
REMARK  103  A    between atoms: _256  and  _257
REMARK  104  A    between atoms: _256  and  _259
REMARK  105  A    between atoms: _259  and  _260
REMARK  106  A    between atoms: _263  and  _265
REMARK  107  A    between atoms: _265  and  _266
REMARK  108  A    between atoms: _265  and  _268
REMARK  109  A    between atoms: _268  and  _269
REMARK  110  A    between atoms: _274  and  _276
REMARK  111  A    between atoms: _276  and  _277
REMARK  112  A    between atoms: _276  and  _279
REMARK  113  A    between atoms: _279  and  _280
REMARK  114  A    between atoms: _282  and  _284
REMARK  115  A    between atoms: _284  and  _285
REMARK  116  A    between atoms: _284  and  _287
REMARK  117  A    between atoms: _287  and  _288
REMARK  118  A    between atoms: _298  and  _300
REMARK  119  A    between atoms: _300  and  _301
REMARK  120  A    between atoms: _303  and  _305
REMARK  121  A    between atoms: _305  and  _306
REMARK  122  A    between atoms: _305  and  _308
REMARK  123  A    between atoms: _308  and  _309
REMARK  124  A    between atoms: _312  and  _314
REMARK  125  A    between atoms: _314  and  _315
REMARK  126  A    between atoms: _314  and  _317
REMARK  127  A    between atoms: _317  and  _318
REMARK  128  A    between atoms: _321  and  _323
REMARK  129  A    between atoms: _323  and  _324
REMARK  130  A    between atoms: _326  and  _328
REMARK  131  A    between atoms: _328  and  _329
REMARK  132  A    between atoms: _328  and  _331
REMARK  133  A    between atoms: _331  and  _332
REMARK  134  A    between atoms: _335  and  _337
REMARK  135  A    between atoms: _337  and  _338
REMARK  136  A    between atoms: _341  and  _343
REMARK  137  A    between atoms: _343  and  _344
REMARK  138  A    between atoms: _343  and  _346
REMARK  139  A    between atoms: _346  and  _347
REMARK  140  A    between atoms: _350  and  _352
REMARK  141  A    between atoms: _352  and  _353
REMARK  142  A    between atoms: _352  and  _355
REMARK  143  A    between atoms: _355  and  _356
REMARK  144  A    between atoms: _361  and  _362
REMARK  145  A    between atoms: _364  and  _366
REMARK  146  A    between atoms: _366  and  _367
REMARK  147  A    between atoms: _366  and  _369
REMARK  148  A    between atoms: _369  and  _370
REMARK  149  A    between atoms: _375  and  _376
REMARK  150  A    between atoms: _378  and  _380
REMARK  151  A    between atoms: _380  and  _381
REMARK  152  A    between atoms: _380  and  _383
REMARK  153  A    between atoms: _383  and  _384
REMARK  154  A    between atoms: _387  and  _389
REMARK  155  A    between atoms: _389  and  _390
REMARK  156  A    between atoms: _389  and  _392
REMARK  157  A    between atoms: _392  and  _393
REMARK  158  A    between atoms: _393  and  _394
REMARK  159  A    between atoms: _394  and  _395
REMARK  160  A    between atoms: _395  and  _396
REMARK  161  A    between atoms: _400  and  _402
REMARK  162  A    between atoms: _402  and  _403
REMARK  163  A    between atoms: _402  and  _405
REMARK  164  A    between atoms: _405  and  _406
REMARK  165  A    between atoms: _409  and  _411
REMARK  166  A    between atoms: _411  and  _412
REMARK  167  A    between atoms: _411  and  _414
REMARK  168  A    between atoms: _417  and  _419
REMARK  169  A    between atoms: _419  and  _420
REMARK  170  A    between atoms: _419  and  _422
REMARK  171  A    between atoms: _422  and  _423
REMARK  172  A    between atoms: _426  and  _428
REMARK  173  A    between atoms: _428  and  _429
REMARK  174  A    between atoms: _428  and  _431
REMARK  175  A    between atoms: _431  and  _432
REMARK  176  A    between atoms: _434  and  _436
REMARK  177  A    between atoms: _436  and  _437
REMARK  178  A    between atoms: _439  and  _441
REMARK  179  A    between atoms: _441  and  _442
REMARK  180  A    between atoms: _441  and  _444
REMARK  181  A    between atoms: _444  and  _445
REMARK  182  A    between atoms: _448  and  _450
REMARK  183  A    between atoms: _450  and  _451
REMARK  184  A    between atoms: _450  and  _453
REMARK  185  A    between atoms: _453  and  _454
REMARK  186  A    between atoms: _457  and  _459
REMARK  187  A    between atoms: _459  and  _460
REMARK  188  A    between atoms: _459  and  _462
REMARK  189  A    between atoms: _462  and  _463
REMARK  190  A    between atoms: _468  and  _470
REMARK  191  A    between atoms: _470  and  _471
REMARK  192  A    between atoms: _470  and  _473
REMARK  193  A    between atoms: _473  and  _474
REMARK  194  A    between atoms: _474  and  _475
REMARK  195  A    between atoms: _475  and  _476
REMARK  196  A    between atoms: _485  and  _487
REMARK  197  A    between atoms: _487  and  _488
REMARK  198  A    between atoms: _487  and  _490
REMARK  199  A    between atoms: _490  and  _491
REMARK  200  A    between atoms: _493  and  _495
REMARK  201  A    between atoms: _495  and  _496
REMARK  202  A    between atoms: _495  and  _498
REMARK  203  A    between atoms: _498  and  _499
REMARK  204  A    between atoms: _499  and  _500
REMARK  205  A    between atoms: _505  and  _507
REMARK  206  A    between atoms: _507  and  _508
REMARK  207  A    between atoms: _507  and  _510
REMARK  208  A    between atoms: _510  and  _511
REMARK  209  A    between atoms: _513  and  _515
REMARK  210  A    between atoms: _515  and  _516
REMARK  211  A    between atoms: _515  and  _518
REMARK  212  A    between atoms: _518  and  _519
REMARK  213  A    between atoms: _521  and  _523
REMARK  214  A    between atoms: _523  and  _524
REMARK  215  A    between atoms: _523  and  _526
REMARK  216  A    between atoms: _526  and  _527
REMARK  217  A    between atoms: _530  and  _532
REMARK  218  A    between atoms: _532  and  _533
REMARK  219  A    between atoms: _535  and  _537
REMARK  220  A    between atoms: _537  and  _538
REMARK  221  A    between atoms: _537  and  _540
REMARK  222  A    between atoms: _540  and  _541
REMARK  223  A    between atoms: _544  and  _546
REMARK  224  A    between atoms: _546  and  _547
REMARK  225  A    between atoms: _546  and  _549
REMARK  226  A    between atoms: _552  and  _554
REMARK  227  A    between atoms: _554  and  _555
REMARK  228  A    between atoms: _554  and  _557
REMARK  229  A    between atoms: _557  and  _558
REMARK  230  A    between atoms: _558  and  _559
REMARK                            x       y       z     vdW  Elec       q    Type
REMARK                         _______ _______ _______ _____ _____    ______ ____
ROOT
ATOM      1  O   HOH     1     -12.984  13.921  34.379  0.00  0.00    +0.000 OA
ENDROOT
TORSDOF 0
REMARK  Name = ../refined-set-2016/4fsl/4fsl_pocket.pdb
REMARK  230 active torsions:
REMARK  status: ('A' for Active; 'I' for Inactive)
REMARK    1  A    between atoms: _1  and  _3
REMARK    2  A    between atoms: _3  and  _4
REMARK    3  A    between atoms: _3  and  _6
REMARK    4  A    between atoms: _6  and  _7
REMARK    5  A    between atoms: _9  and  _11
REMARK    6  A    between atoms: _11  and  _12
REMARK    7  A    between atoms: _14  and  _16
REMARK    8  A    between atoms: _16  and  _17
REMARK    9  A    between atoms: _16  and  _19
REMARK   10  A    between atoms: _19  and  _20
REMARK   11  A    between atoms: _20  and  _21
REMARK   12  A    between atoms: _26  and  _28
REMARK   13  A    between atoms: _28  and  _29
REMARK   14  A    between atoms: _31  and  _33
REMARK   15  A    between atoms: _33  and  _34
REMARK   16  A    between atoms: _33  and  _36
REMARK   17  A    between atoms: _36  and  _37
REMARK   18  A    between atoms: _42  and  _43
REMARK   19  A    between atoms: _45  and  _47
REMARK   20  A    between atoms: _47  and  _48
REMARK   21  A    between atoms: _47  and  _50
REMARK   22  A    between atoms: _50  and  _51
REMARK   23  A    between atoms: _54  and  _56
REMARK   24  A    between atoms: _56  and  _57
REMARK   25  A    between atoms: _56  and  _59
REMARK   26  A    between atoms: _62  and  _64
REMARK   27  A    between atoms: _64  and  _65
REMARK   28  A    between atoms: _64  and  _67
REMARK   29  A    between atoms: _67  and  _68
REMARK   30  A    between atoms: _71  and  _73
REMARK   31  A    between atoms: _73  and  _74
REMARK   32  A    between atoms: _73  and  _76
REMARK   33  A    between atoms: _76  and  _77
REMARK   34  A    between atoms: _80  and  _82
REMARK   35  A    between atoms: _82  and  _83
REMARK   36  A    between atoms: _85  and  _87
REMARK   37  A    between atoms: _87  and  _88
REMARK   38  A    between atoms: _87  and  _90
REMARK   39  A    between atoms: _90  and  _91
REMARK   40  A    between atoms: _93  and  _95
REMARK   41  A    between atoms: _95  and  _96
REMARK   42  A    between atoms: _95  and  _98
REMARK   43  A    between atoms: _98  and  _99
REMARK   44  A    between atoms: _101  and  _103
REMARK   45  A    between atoms: _103  and  _104
REMARK   46  A    between atoms: _103  and  _106
REMARK   47  A    between atoms: _106  and  _107
REMARK   48  A    between atoms: _112  and  _114
REMARK   49  A    between atoms: _114  and  _115
REMARK   50  A    between atoms: _114  and  _117
REMARK   51  A    between atoms: _117  and  _118
REMARK   52  A    between atoms: _124  and  _126
REMARK   53  A    between atoms: _126  and  _127
REMARK   54  A    between atoms: _126  and  _129
REMARK   55  A    between atoms: _133  and  _134
REMARK   56  A    between atoms: _139  and  _141
REMARK   57  A    between atoms: _141  and  _142
REMARK   58  A    between atoms: _141  and  _144
REMARK   59  A    between atoms: _144  and  _145
REMARK   60  A    between atoms: _150  and  _151
REMARK   61  A    between atoms: _153  and  _155
REMARK   62  A    between atoms: _155  and  _156
REMARK   63  A    between atoms: _155  and  _158
REMARK   64  A    between atoms: _158  and  _159
REMARK   65  A    between atoms: _162  and  _164
REMARK   66  A    between atoms: _164  and  _165
REMARK   67  A    between atoms: _164  and  _167
REMARK   68  A    between atoms: _167  and  _168
REMARK   69  A    between atoms: _168  and  _169
REMARK   70  A    between atoms: _174  and  _176
REMARK   71  A    between atoms: _176  and  _177
REMARK   72  A    between atoms: _179  and  _181
REMARK   73  A    between atoms: _181  and  _182
REMARK   74  A    between atoms: _181  and  _184
REMARK   75  A    between atoms: _184  and  _185
REMARK   76  A    between atoms: _185  and  _186
REMARK   77  A    between atoms: _186  and  _187
REMARK   78  A    between atoms: _187  and  _188
REMARK   79  A    between atoms: _192  and  _194
REMARK   80  A    between atoms: _194  and  _195
REMARK   81  A    between atoms: _194  and  _197
REMARK   82  A    between atoms: _197  and  _198
REMARK   83  A    between atoms: _208  and  _210
REMARK   84  A    between atoms: _210  and  _211
REMARK   85  A    between atoms: _210  and  _213
REMARK   86  A    between atoms: _213  and  _214
REMARK   87  A    between atoms: _217  and  _219
REMARK   88  A    between atoms: _219  and  _220
REMARK   89  A    between atoms: _219  and  _222
REMARK   90  A    between atoms: _222  and  _223
REMARK   91  A    between atoms: _223  and  _224
REMARK   92  A    between atoms: _224  and  _225
REMARK   93  A    between atoms: _225  and  _226
REMARK   94  A    between atoms: _230  and  _232
REMARK   95  A    between atoms: _232  and  _233
REMARK   96  A    between atoms: _232  and  _235
REMARK   97  A    between atoms: _235  and  _236
REMARK   98  A    between atoms: _242  and  _244
REMARK   99  A    between atoms: _244  and  _245
REMARK  100  A    between atoms: _244  and  _247
REMARK  101  A    between atoms: _247  and  _248
REMARK  102  A    between atoms: _254  and  _256
REMARK  103  A    between atoms: _256  and  _257
REMARK  104  A    between atoms: _256  and  _259
REMARK  105  A    between atoms: _259  and  _260
REMARK  106  A    between atoms: _263  and  _265
REMARK  107  A    between atoms: _265  and  _266
REMARK  108  A    between atoms: _265  and  _268
REMARK  109  A    between atoms: _268  and  _269
REMARK  110  A    between atoms: _274  and  _276
REMARK  111  A    between atoms: _276  and  _277
REMARK  112  A    between atoms: _276  and  _279
REMARK  113  A    between atoms: _279  and  _280
REMARK  114  A    between atoms: _282  and  _284
REMARK  115  A    between atoms: _284  and  _285
REMARK  116  A    between atoms: _284  and  _287
REMARK  117  A    between atoms: _287  and  _288
REMARK  118  A    between atoms: _298  and  _300
REMARK  119  A    between atoms: _300  and  _301
REMARK  120  A    between atoms: _303  and  _305
REMARK  121  A    between atoms: _305  and  _306
REMARK  122  A    between atoms: _305  and  _308
REMARK  123  A    between atoms: _308  and  _309
REMARK  124  A    between atoms: _312  and  _314
REMARK  125  A    between atoms: _314  and  _315
REMARK  126  A    between atoms: _314  and  _317
REMARK  127  A    between atoms: _317  and  _318
REMARK  128  A    between atoms: _321  and  _323
REMARK  129  A    between atoms: _323  and  _324
REMARK  130  A    between atoms: _326  and  _328
REMARK  131  A    between atoms: _328  and  _329
REMARK  132  A    between atoms: _328  and  _331
REMARK  133  A    between atoms: _331  and  _332
REMARK  134  A    between atoms: _335  and  _337
REMARK  135  A    between atoms: _337  and  _338
REMARK  136  A    between atoms: _341  and  _343
REMARK  137  A    between atoms: _343  and  _344
REMARK  138  A    between atoms: _343  and  _346
REMARK  139  A    between atoms: _346  and  _347
REMARK  140  A    between atoms: _350  and  _352
REMARK  141  A    between atoms: _352  and  _353
REMARK  142  A    between atoms: _352  and  _355
REMARK  143  A    between atoms: _355  and  _356
REMARK  144  A    between atoms: _361  and  _362
REMARK  145  A    between atoms: _364  and  _366
REMARK  146  A    between atoms: _366  and  _367
REMARK  147  A    between atoms: _366  and  _369
REMARK  148  A    between atoms: _369  and  _370
REMARK  149  A    between atoms: _375  and  _376
REMARK  150  A    between atoms: _378  and  _380
REMARK  151  A    between atoms: _380  and  _381
REMARK  152  A    between atoms: _380  and  _383
REMARK  153  A    between atoms: _383  and  _384
REMARK  154  A    between atoms: _387  and  _389
REMARK  155  A    between atoms: _389  and  _390
REMARK  156  A    between atoms: _389  and  _392
REMARK  157  A    between atoms: _392  and  _393
REMARK  158  A    between atoms: _393  and  _394
REMARK  159  A    between atoms: _394  and  _395
REMARK  160  A    between atoms: _395  and  _396
REMARK  161  A    between atoms: _400  and  _402
REMARK  162  A    between atoms: _402  and  _403
REMARK  163  A    between atoms: _402  and  _405
REMARK  164  A    between atoms: _405  and  _406
REMARK  165  A    between atoms: _409  and  _411
REMARK  166  A    between atoms: _411  and  _412
REMARK  167  A    between atoms: _411  and  _414
REMARK  168  A    between atoms: _417  and  _419
REMARK  169  A    between atoms: _419  and  _420
REMARK  170  A    between atoms: _419  and  _422
REMARK  171  A    between atoms: _422  and  _423
REMARK  172  A    between atoms: _426  and  _428
REMARK  173  A    between atoms: _428  and  _429
REMARK  174  A    between atoms: _428  and  _431
REMARK  175  A    between atoms: _431  and  _432
REMARK  176  A    between atoms: _434  and  _436
REMARK  177  A    between atoms: _436  and  _437
REMARK  178  A    between atoms: _439  and  _441
REMARK  179  A    between atoms: _441  and  _442
REMARK  180  A    between atoms: _441  and  _444
REMARK  181  A    between atoms: _444  and  _445
REMARK  182  A    between atoms: _448  and  _450
REMARK  183  A    between atoms: _450  and  _451
REMARK  184  A    between atoms: _450  and  _453
REMARK  185  A    between atoms: _453  and  _454
REMARK  186  A    between atoms: _457  and  _459
REMARK  187  A    between atoms: _459  and  _460
REMARK  188  A    between atoms: _459  and  _462
REMARK  189  A    between atoms: _462  and  _463
REMARK  190  A    between atoms: _468  and  _470
REMARK  191  A    between atoms: _470  and  _471
REMARK  192  A    between atoms: _470  and  _473
REMARK  193  A    between atoms: _473  and  _474
REMARK  194  A    between atoms: _474  and  _475
REMARK  195  A    between atoms: _475  and  _476
REMARK  196  A    between atoms: _485  and  _487
REMARK  197  A    between atoms: _487  and  _488
REMARK  198  A    between atoms: _487  and  _490
REMARK  199  A    between atoms: _490  and  _491
REMARK  200  A    between atoms: _493  and  _495
REMARK  201  A    between atoms: _495  and  _496
REMARK  202  A    between atoms: _495  and  _498
REMARK  203  A    between atoms: _498  and  _499
REMARK  204  A    between atoms: _499  and  _500
REMARK  205  A    between atoms: _505  and  _507
REMARK  206  A    between atoms: _507  and  _508
REMARK  207  A    between atoms: _507  and  _510
REMARK  208  A    between atoms: _510  and  _511
REMARK  209  A    between atoms: _513  and  _515
REMARK  210  A    between atoms: _515  and  _516
REMARK  211  A    between atoms: _515  and  _518
REMARK  212  A    between atoms: _518  and  _519
REMARK  213  A    between atoms: _521  and  _523
REMARK  214  A    between atoms: _523  and  _524
REMARK  215  A    between atoms: _523  and  _526
REMARK  216  A    between atoms: _526  and  _527
REMARK  217  A    between atoms: _530  and  _532
REMARK  218  A    between atoms: _532  and  _533
REMARK  219  A    between atoms: _535  and  _537
REMARK  220  A    between atoms: _537  and  _538
REMARK  221  A    between atoms: _537  and  _540
REMARK  222  A    between atoms: _540  and  _541
REMARK  223  A    between atoms: _544  and  _546
REMARK  224  A    between atoms: _546  and  _547
REMARK  225  A    between atoms: _546  and  _549
REMARK  226  A    between atoms: _552  and  _554
REMARK  227  A    between atoms: _554  and  _555
REMARK  228  A    between atoms: _554  and  _557
REMARK  229  A    between atoms: _557  and  _558
REMARK  230  A    between atoms: _558  and  _559
REMARK                            x       y       z     vdW  Elec       q    Type
REMARK                         _______ _______ _______ _____ _____    ______ ____
ROOT
ATOM      1  O   HOH     1     -10.756  16.654  33.556  0.00  0.00    +0.000 OA
ENDROOT
TORSDOF 0
REMARK  Name = ../refined-set-2016/4fsl/4fsl_pocket.pdb
REMARK  230 active torsions:
REMARK  status: ('A' for Active; 'I' for Inactive)
REMARK    1  A    between atoms: _1  and  _3
REMARK    2  A    between atoms: _3  and  _4
REMARK    3  A    between atoms: _3  and  _6
REMARK    4  A    between atoms: _6  and  _7
REMARK    5  A    between atoms: _9  and  _11
REMARK    6  A    between atoms: _11  and  _12
REMARK    7  A    between atoms: _14  and  _16
REMARK    8  A    between atoms: _16  and  _17
REMARK    9  A    between atoms: _16  and  _19
REMARK   10  A    between atoms: _19  and  _20
REMARK   11  A    between atoms: _20  and  _21
REMARK   12  A    between atoms: _26  and  _28
REMARK   13  A    between atoms: _28  and  _29
REMARK   14  A    between atoms: _31  and  _33
REMARK   15  A    between atoms: _33  and  _34
REMARK   16  A    between atoms: _33  and  _36
REMARK   17  A    between atoms: _36  and  _37
REMARK   18  A    between atoms: _42  and  _43
REMARK   19  A    between atoms: _45  and  _47
REMARK   20  A    between atoms: _47  and  _48
REMARK   21  A    between atoms: _47  and  _50
REMARK   22  A    between atoms: _50  and  _51
REMARK   23  A    between atoms: _54  and  _56
REMARK   24  A    between atoms: _56  and  _57
REMARK   25  A    between atoms: _56  and  _59
REMARK   26  A    between atoms: _62  and  _64
REMARK   27  A    between atoms: _64  and  _65
REMARK   28  A    between atoms: _64  and  _67
REMARK   29  A    between atoms: _67  and  _68
REMARK   30  A    between atoms: _71  and  _73
REMARK   31  A    between atoms: _73  and  _74
REMARK   32  A    between atoms: _73  and  _76
REMARK   33  A    between atoms: _76  and  _77
REMARK   34  A    between atoms: _80  and  _82
REMARK   35  A    between atoms: _82  and  _83
REMARK   36  A    between atoms: _85  and  _87
REMARK   37  A    between atoms: _87  and  _88
REMARK   38  A    between atoms: _87  and  _90
REMARK   39  A    between atoms: _90  and  _91
REMARK   40  A    between atoms: _93  and  _95
REMARK   41  A    between atoms: _95  and  _96
REMARK   42  A    between atoms: _95  and  _98
REMARK   43  A    between atoms: _98  and  _99
REMARK   44  A    between atoms: _101  and  _103
REMARK   45  A    between atoms: _103  and  _104
REMARK   46  A    between atoms: _103  and  _106
REMARK   47  A    between atoms: _106  and  _107
REMARK   48  A    between atoms: _112  and  _114
REMARK   49  A    between atoms: _114  and  _115
REMARK   50  A    between atoms: _114  and  _117
REMARK   51  A    between atoms: _117  and  _118
REMARK   52  A    between atoms: _124  and  _126
REMARK   53  A    between atoms: _126  and  _127
REMARK   54  A    between atoms: _126  and  _129
REMARK   55  A    between atoms: _133  and  _134
REMARK   56  A    between atoms: _139  and  _141
REMARK   57  A    between atoms: _141  and  _142
REMARK   58  A    between atoms: _141  and  _144
REMARK   59  A    between atoms: _144  and  _145
REMARK   60  A    between atoms: _150  and  _151
REMARK   61  A    between atoms: _153  and  _155
REMARK   62  A    between atoms: _155  and  _156
REMARK   63  A    between atoms: _155  and  _158
REMARK   64  A    between atoms: _158  and  _159
REMARK   65  A    between atoms: _162  and  _164
REMARK   66  A    between atoms: _164  and  _165
REMARK   67  A    between atoms: _164  and  _167
REMARK   68  A    between atoms: _167  and  _168
REMARK   69  A    between atoms: _168  and  _169
REMARK   70  A    between atoms: _174  and  _176
REMARK   71  A    between atoms: _176  and  _177
REMARK   72  A    between atoms: _179  and  _181
REMARK   73  A    between atoms: _181  and  _182
REMARK   74  A    between atoms: _181  and  _184
REMARK   75  A    between atoms: _184  and  _185
REMARK   76  A    between atoms: _185  and  _186
REMARK   77  A    between atoms: _186  and  _187
REMARK   78  A    between atoms: _187  and  _188
REMARK   79  A    between atoms: _192  and  _194
REMARK   80  A    between atoms: _194  and  _195
REMARK   81  A    between atoms: _194  and  _197
REMARK   82  A    between atoms: _197  and  _198
REMARK   83  A    between atoms: _208  and  _210
REMARK   84  A    between atoms: _210  and  _211
REMARK   85  A    between atoms: _210  and  _213
REMARK   86  A    between atoms: _213  and  _214
REMARK   87  A    between atoms: _217  and  _219
REMARK   88  A    between atoms: _219  and  _220
REMARK   89  A    between atoms: _219  and  _222
REMARK   90  A    between atoms: _222  and  _223
REMARK   91  A    between atoms: _223  and  _224
REMARK   92  A    between atoms: _224  and  _225
REMARK   93  A    between atoms: _225  and  _226
REMARK   94  A    between atoms: _230  and  _232
REMARK   95  A    between atoms: _232  and  _233
REMARK   96  A    between atoms: _232  and  _235
REMARK   97  A    between atoms: _235  and  _236
REMARK   98  A    between atoms: _242  and  _244
REMARK   99  A    between atoms: _244  and  _245
REMARK  100  A    between atoms: _244  and  _247
REMARK  101  A    between atoms: _247  and  _248
REMARK  102  A    between atoms: _254  and  _256
REMARK  103  A    between atoms: _256  and  _257
REMARK  104  A    between atoms: _256  and  _259
REMARK  105  A    between atoms: _259  and  _260
REMARK  106  A    between atoms: _263  and  _265
REMARK  107  A    between atoms: _265  and  _266
REMARK  108  A    between atoms: _265  and  _268
REMARK  109  A    between atoms: _268  and  _269
REMARK  110  A    between atoms: _274  and  _276
REMARK  111  A    between atoms: _276  and  _277
REMARK  112  A    between atoms: _276  and  _279
REMARK  113  A    between atoms: _279  and  _280
REMARK  114  A    between atoms: _282  and  _284
REMARK  115  A    between atoms: _284  and  _285
REMARK  116  A    between atoms: _284  and  _287
REMARK  117  A    between atoms: _287  and  _288
REMARK  118  A    between atoms: _298  and  _300
REMARK  119  A    between atoms: _300  and  _301
REMARK  120  A    between atoms: _303  and  _305
REMARK  121  A    between atoms: _305  and  _306
REMARK  122  A    between atoms: _305  and  _308
REMARK  123  A    between atoms: _308  and  _309
REMARK  124  A    between atoms: _312  and  _314
REMARK  125  A    between atoms: _314  and  _315
REMARK  126  A    between atoms: _314  and  _317
REMARK  127  A    between atoms: _317  and  _318
REMARK  128  A    between atoms: _321  and  _323
REMARK  129  A    between atoms: _323  and  _324
REMARK  130  A    between atoms: _326  and  _328
REMARK  131  A    between atoms: _328  and  _329
REMARK  132  A    between atoms: _328  and  _331
REMARK  133  A    between atoms: _331  and  _332
REMARK  134  A    between atoms: _335  and  _337
REMARK  135  A    between atoms: _337  and  _338
REMARK  136  A    between atoms: _341  and  _343
REMARK  137  A    between atoms: _343  and  _344
REMARK  138  A    between atoms: _343  and  _346
REMARK  139  A    between atoms: _346  and  _347
REMARK  140  A    between atoms: _350  and  _352
REMARK  141  A    between atoms: _352  and  _353
REMARK  142  A    between atoms: _352  and  _355
REMARK  143  A    between atoms: _355  and  _356
REMARK  144  A    between atoms: _361  and  _362
REMARK  145  A    between atoms: _364  and  _366
REMARK  146  A    between atoms: _366  and  _367
REMARK  147  A    between atoms: _366  and  _369
REMARK  148  A    between atoms: _369  and  _370
REMARK  149  A    between atoms: _375  and  _376
REMARK  150  A    between atoms: _378  and  _380
REMARK  151  A    between atoms: _380  and  _381
REMARK  152  A    between atoms: _380  and  _383
REMARK  153  A    between atoms: _383  and  _384
REMARK  154  A    between atoms: _387  and  _389
REMARK  155  A    between atoms: _389  and  _390
REMARK  156  A    between atoms: _389  and  _392
REMARK  157  A    between atoms: _392  and  _393
REMARK  158  A    between atoms: _393  and  _394
REMARK  159  A    between atoms: _394  and  _395
REMARK  160  A    between atoms: _395  and  _396
REMARK  161  A    between atoms: _400  and  _402
REMARK  162  A    between atoms: _402  and  _403
REMARK  163  A    between atoms: _402  and  _405
REMARK  164  A    between atoms: _405  and  _406
REMARK  165  A    between atoms: _409  and  _411
REMARK  166  A    between atoms: _411  and  _412
REMARK  167  A    between atoms: _411  and  _414
REMARK  168  A    between atoms: _417  and  _419
REMARK  169  A    between atoms: _419  and  _420
REMARK  170  A    between atoms: _419  and  _422
REMARK  171  A    between atoms: _422  and  _423
REMARK  172  A    between atoms: _426  and  _428
REMARK  173  A    between atoms: _428  and  _429
REMARK  174  A    between atoms: _428  and  _431
REMARK  175  A    between atoms: _431  and  _432
REMARK  176  A    between atoms: _434  and  _436
REMARK  177  A    between atoms: _436  and  _437
REMARK  178  A    between atoms: _439  and  _441
REMARK  179  A    between atoms: _441  and  _442
REMARK  180  A    between atoms: _441  and  _444
REMARK  181  A    between atoms: _444  and  _445
REMARK  182  A    between atoms: _448  and  _450
REMARK  183  A    between atoms: _450  and  _451
REMARK  184  A    between atoms: _450  and  _453
REMARK  185  A    between atoms: _453  and  _454
REMARK  186  A    between atoms: _457  and  _459
REMARK  187  A    between atoms: _459  and  _460
REMARK  188  A    between atoms: _459  and  _462
REMARK  189  A    between atoms: _462  and  _463
REMARK  190  A    between atoms: _468  and  _470
REMARK  191  A    between atoms: _470  and  _471
REMARK  192  A    between atoms: _470  and  _473
REMARK  193  A    between atoms: _473  and  _474
REMARK  194  A    between atoms: _474  and  _475
REMARK  195  A    between atoms: _475  and  _476
REMARK  196  A    between atoms: _485  and  _487
REMARK  197  A    between atoms: _487  and  _488
REMARK  198  A    between atoms: _487  and  _490
REMARK  199  A    between atoms: _490  and  _491
REMARK  200  A    between atoms: _493  and  _495
REMARK  201  A    between atoms: _495  and  _496
REMARK  202  A    between atoms: _495  and  _498
REMARK  203  A    between atoms: _498  and  _499
REMARK  204  A    between atoms: _499  and  _500
REMARK  205  A    between atoms: _505  and  _507
REMARK  206  A    between atoms: _507  and  _508
REMARK  207  A    between atoms: _507  and  _510
REMARK  208  A    between atoms: _510  and  _511
REMARK  209  A    between atoms: _513  and  _515
REMARK  210  A    between atoms: _515  and  _516
REMARK  211  A    between atoms: _515  and  _518
REMARK  212  A    between atoms: _518  and  _519
REMARK  213  A    between atoms: _521  and  _523
REMARK  214  A    between atoms: _523  and  _524
REMARK  215  A    between atoms: _523  and  _526
REMARK  216  A    between atoms: _526  and  _527
REMARK  217  A    between atoms: _530  and  _532
REMARK  218  A    between atoms: _532  and  _533
REMARK  219  A    between atoms: _535  and  _537
REMARK  220  A    between atoms: _537  and  _538
REMARK  221  A    between atoms: _537  and  _540
REMARK  222  A    between atoms: _540  and  _541
REMARK  223  A    between atoms: _544  and  _546
REMARK  224  A    between atoms: _546  and  _547
REMARK  225  A    between atoms: _546  and  _549
REMARK  226  A    between atoms: _552  and  _554
REMARK  227  A    between atoms: _554  and  _555
REMARK  228  A    between atoms: _554  and  _557
REMARK  229  A    between atoms: _557  and  _558
REMARK  230  A    between atoms: _558  and  _559
REMARK                            x       y       z     vdW  Elec       q    Type
REMARK                         _______ _______ _______ _____ _____    ______ ____
ROOT
ATOM      1  O   HOH     1      -5.133  20.787  26.282  0.00  0.00    +0.000 OA
ENDROOT
TORSDOF 0
REMARK  Name = ../refined-set-2016/4fsl/4fsl_pocket.pdb
REMARK  230 active torsions:
REMARK  status: ('A' for Active; 'I' for Inactive)
REMARK    1  A    between atoms: _1  and  _3
REMARK    2  A    between atoms: _3  and  _4
REMARK    3  A    between atoms: _3  and  _6
REMARK    4  A    between atoms: _6  and  _7
REMARK    5  A    between atoms: _9  and  _11
REMARK    6  A    between atoms: _11  and  _12
REMARK    7  A    between atoms: _14  and  _16
REMARK    8  A    between atoms: _16  and  _17
REMARK    9  A    between atoms: _16  and  _19
REMARK   10  A    between atoms: _19  and  _20
REMARK   11  A    between atoms: _20  and  _21
REMARK   12  A    between atoms: _26  and  _28
REMARK   13  A    between atoms: _28  and  _29
REMARK   14  A    between atoms: _31  and  _33
REMARK   15  A    between atoms: _33  and  _34
REMARK   16  A    between atoms: _33  and  _36
REMARK   17  A    between atoms: _36  and  _37
REMARK   18  A    between atoms: _42  and  _43
REMARK   19  A    between atoms: _45  and  _47
REMARK   20  A    between atoms: _47  and  _48
REMARK   21  A    between atoms: _47  and  _50
REMARK   22  A    between atoms: _50  and  _51
REMARK   23  A    between atoms: _54  and  _56
REMARK   24  A    between atoms: _56  and  _57
REMARK   25  A    between atoms: _56  and  _59
REMARK   26  A    between atoms: _62  and  _64
REMARK   27  A    between atoms: _64  and  _65
REMARK   28  A    between atoms: _64  and  _67
REMARK   29  A    between atoms: _67  and  _68
REMARK   30  A    between atoms: _71  and  _73
REMARK   31  A    between atoms: _73  and  _74
REMARK   32  A    between atoms: _73  and  _76
REMARK   33  A    between atoms: _76  and  _77
REMARK   34  A    between atoms: _80  and  _82
REMARK   35  A    between atoms: _82  and  _83
REMARK   36  A    between atoms: _85  and  _87
REMARK   37  A    between atoms: _87  and  _88
REMARK   38  A    between atoms: _87  and  _90
REMARK   39  A    between atoms: _90  and  _91
REMARK   40  A    between atoms: _93  and  _95
REMARK   41  A    between atoms: _95  and  _96
REMARK   42  A    between atoms: _95  and  _98
REMARK   43  A    between atoms: _98  and  _99
REMARK   44  A    between atoms: _101  and  _103
REMARK   45  A    between atoms: _103  and  _104
REMARK   46  A    between atoms: _103  and  _106
REMARK   47  A    between atoms: _106  and  _107
REMARK   48  A    between atoms: _112  and  _114
REMARK   49  A    between atoms: _114  and  _115
REMARK   50  A    between atoms: _114  and  _117
REMARK   51  A    between atoms: _117  and  _118
REMARK   52  A    between atoms: _124  and  _126
REMARK   53  A    between atoms: _126  and  _127
REMARK   54  A    between atoms: _126  and  _129
REMARK   55  A    between atoms: _133  and  _134
REMARK   56  A    between atoms: _139  and  _141
REMARK   57  A    between atoms: _141  and  _142
REMARK   58  A    between atoms: _141  and  _144
REMARK   59  A    between atoms: _144  and  _145
REMARK   60  A    between atoms: _150  and  _151
REMARK   61  A    between atoms: _153  and  _155
REMARK   62  A    between atoms: _155  and  _156
REMARK   63  A    between atoms: _155  and  _158
REMARK   64  A    between atoms: _158  and  _159
REMARK   65  A    between atoms: _162  and  _164
REMARK   66  A    between atoms: _164  and  _165
REMARK   67  A    between atoms: _164  and  _167
REMARK   68  A    between atoms: _167  and  _168
REMARK   69  A    between atoms: _168  and  _169
REMARK   70  A    between atoms: _174  and  _176
REMARK   71  A    between atoms: _176  and  _177
REMARK   72  A    between atoms: _179  and  _181
REMARK   73  A    between atoms: _181  and  _182
REMARK   74  A    between atoms: _181  and  _184
REMARK   75  A    between atoms: _184  and  _185
REMARK   76  A    between atoms: _185  and  _186
REMARK   77  A    between atoms: _186  and  _187
REMARK   78  A    between atoms: _187  and  _188
REMARK   79  A    between atoms: _192  and  _194
REMARK   80  A    between atoms: _194  and  _195
REMARK   81  A    between atoms: _194  and  _197
REMARK   82  A    between atoms: _197  and  _198
REMARK   83  A    between atoms: _208  and  _210
REMARK   84  A    between atoms: _210  and  _211
REMARK   85  A    between atoms: _210  and  _213
REMARK   86  A    between atoms: _213  and  _214
REMARK   87  A    between atoms: _217  and  _219
REMARK   88  A    between atoms: _219  and  _220
REMARK   89  A    between atoms: _219  and  _222
REMARK   90  A    between atoms: _222  and  _223
REMARK   91  A    between atoms: _223  and  _224
REMARK   92  A    between atoms: _224  and  _225
REMARK   93  A    between atoms: _225  and  _226
REMARK   94  A    between atoms: _230  and  _232
REMARK   95  A    between atoms: _232  and  _233
REMARK   96  A    between atoms: _232  and  _235
REMARK   97  A    between atoms: _235  and  _236
REMARK   98  A    between atoms: _242  and  _244
REMARK   99  A    between atoms: _244  and  _245
REMARK  100  A    between atoms: _244  and  _247
REMARK  101  A    between atoms: _247  and  _248
REMARK  102  A    between atoms: _254  and  _256
REMARK  103  A    between atoms: _256  and  _257
REMARK  104  A    between atoms: _256  and  _259
REMARK  105  A    between atoms: _259  and  _260
REMARK  106  A    between atoms: _263  and  _265
REMARK  107  A    between atoms: _265  and  _266
REMARK  108  A    between atoms: _265  and  _268
REMARK  109  A    between atoms: _268  and  _269
REMARK  110  A    between atoms: _274  and  _276
REMARK  111  A    between atoms: _276  and  _277
REMARK  112  A    between atoms: _276  and  _279
REMARK  113  A    between atoms: _279  and  _280
REMARK  114  A    between atoms: _282  and  _284
REMARK  115  A    between atoms: _284  and  _285
REMARK  116  A    between atoms: _284  and  _287
REMARK  117  A    between atoms: _287  and  _288
REMARK  118  A    between atoms: _298  and  _300
REMARK  119  A    between atoms: _300  and  _301
REMARK  120  A    between atoms: _303  and  _305
REMARK  121  A    between atoms: _305  and  _306
REMARK  122  A    between atoms: _305  and  _308
REMARK  123  A    between atoms: _308  and  _309
REMARK  124  A    between atoms: _312  and  _314
REMARK  125  A    between atoms: _314  and  _315
REMARK  126  A    between atoms: _314  and  _317
REMARK  127  A    between atoms: _317  and  _318
REMARK  128  A    between atoms: _321  and  _323
REMARK  129  A    between atoms: _323  and  _324
REMARK  130  A    between atoms: _326  and  _328
REMARK  131  A    between atoms: _328  and  _329
REMARK  132  A    between atoms: _328  and  _331
REMARK  133  A    between atoms: _331  and  _332
REMARK  134  A    between atoms: _335  and  _337
REMARK  135  A    between atoms: _337  and  _338
REMARK  136  A    between atoms: _341  and  _343
REMARK  137  A    between atoms: _343  and  _344
REMARK  138  A    between atoms: _343  and  _346
REMARK  139  A    between atoms: _346  and  _347
REMARK  140  A    between atoms: _350  and  _352
REMARK  141  A    between atoms: _352  and  _353
REMARK  142  A    between atoms: _352  and  _355
REMARK  143  A    between atoms: _355  and  _356
REMARK  144  A    between atoms: _361  and  _362
REMARK  145  A    between atoms: _364  and  _366
REMARK  146  A    between atoms: _366  and  _367
REMARK  147  A    between atoms: _366  and  _369
REMARK  148  A    between atoms: _369  and  _370
REMARK  149  A    between atoms: _375  and  _376
REMARK  150  A    between atoms: _378  and  _380
REMARK  151  A    between atoms: _380  and  _381
REMARK  152  A    between atoms: _380  and  _383
REMARK  153  A    between atoms: _383  and  _384
REMARK  154  A    between atoms: _387  and  _389
REMARK  155  A    between atoms: _389  and  _390
REMARK  156  A    between atoms: _389  and  _392
REMARK  157  A    between atoms: _392  and  _393
REMARK  158  A    between atoms: _393  and  _394
REMARK  159  A    between atoms: _394  and  _395
REMARK  160  A    between atoms: _395  and  _396
REMARK  161  A    between atoms: _400  and  _402
REMARK  162  A    between atoms: _402  and  _403
REMARK  163  A    between atoms: _402  and  _405
REMARK  164  A    between atoms: _405  and  _406
REMARK  165  A    between atoms: _409  and  _411
REMARK  166  A    between atoms: _411  and  _412
REMARK  167  A    between atoms: _411  and  _414
REMARK  168  A    between atoms: _417  and  _419
REMARK  169  A    between atoms: _419  and  _420
REMARK  170  A    between atoms: _419  and  _422
REMARK  171  A    between atoms: _422  and  _423
REMARK  172  A    between atoms: _426  and  _428
REMARK  173  A    between atoms: _428  and  _429
REMARK  174  A    between atoms: _428  and  _431
REMARK  175  A    between atoms: _431  and  _432
REMARK  176  A    between atoms: _434  and  _436
REMARK  177  A    between atoms: _436  and  _437
REMARK  178  A    between atoms: _439  and  _441
REMARK  179  A    between atoms: _441  and  _442
REMARK  180  A    between atoms: _441  and  _444
REMARK  181  A    between atoms: _444  and  _445
REMARK  182  A    between atoms: _448  and  _450
REMARK  183  A    between atoms: _450  and  _451
REMARK  184  A    between atoms: _450  and  _453
REMARK  185  A    between atoms: _453  and  _454
REMARK  186  A    between atoms: _457  and  _459
REMARK  187  A    between atoms: _459  and  _460
REMARK  188  A    between atoms: _459  and  _462
REMARK  189  A    between atoms: _462  and  _463
REMARK  190  A    between atoms: _468  and  _470
REMARK  191  A    between atoms: _470  and  _471
REMARK  192  A    between atoms: _470  and  _473
REMARK  193  A    between atoms: _473  and  _474
REMARK  194  A    between atoms: _474  and  _475
REMARK  195  A    between atoms: _475  and  _476
REMARK  196  A    between atoms: _485  and  _487
REMARK  197  A    between atoms: _487  and  _488
REMARK  198  A    between atoms: _487  and  _490
REMARK  199  A    between atoms: _490  and  _491
REMARK  200  A    between atoms: _493  and  _495
REMARK  201  A    between atoms: _495  and  _496
REMARK  202  A    between atoms: _495  and  _498
REMARK  203  A    between atoms: _498  and  _499
REMARK  204  A    between atoms: _499  and  _500
REMARK  205  A    between atoms: _505  and  _507
REMARK  206  A    between atoms: _507  and  _508
REMARK  207  A    between atoms: _507  and  _510
REMARK  208  A    between atoms: _510  and  _511
REMARK  209  A    between atoms: _513  and  _515
REMARK  210  A    between atoms: _515  and  _516
REMARK  211  A    between atoms: _515  and  _518
REMARK  212  A    between atoms: _518  and  _519
REMARK  213  A    between atoms: _521  and  _523
REMARK  214  A    between atoms: _523  and  _524
REMARK  215  A    between atoms: _523  and  _526
REMARK  216  A    between atoms: _526  and  _527
REMARK  217  A    between atoms: _530  and  _532
REMARK  218  A    between atoms: _532  and  _533
REMARK  219  A    between atoms: _535  and  _537
REMARK  220  A    between atoms: _537  and  _538
REMARK  221  A    between atoms: _537  and  _540
REMARK  222  A    between atoms: _540  and  _541
REMARK  223  A    between atoms: _544  and  _546
REMARK  224  A    between atoms: _546  and  _547
REMARK  225  A    between atoms: _546  and  _549
REMARK  226  A    between atoms: _552  and  _554
REMARK  227  A    between atoms: _554  and  _555
REMARK  228  A    between atoms: _554  and  _557
REMARK  229  A    between atoms: _557  and  _558
REMARK  230  A    between atoms: _558  and  _559
REMARK                            x       y       z     vdW  Elec       q    Type
REMARK                         _______ _______ _______ _____ _____    ______ ____
ROOT
ATOM      1  O   HOH     1      -7.719  15.576  29.405  0.00  0.00    +0.000 OA
ENDROOT
TORSDOF 0
REMARK  Name = ../refined-set-2016/4fsl/4fsl_pocket.pdb
REMARK  230 active torsions:
REMARK  status: ('A' for Active; 'I' for Inactive)
REMARK    1  A    between atoms: _1  and  _3
REMARK    2  A    between atoms: _3  and  _4
REMARK    3  A    between atoms: _3  and  _6
REMARK    4  A    between atoms: _6  and  _7
REMARK    5  A    between atoms: _9  and  _11
REMARK    6  A    between atoms: _11  and  _12
REMARK    7  A    between atoms: _14  and  _16
REMARK    8  A    between atoms: _16  and  _17
REMARK    9  A    between atoms: _16  and  _19
REMARK   10  A    between atoms: _19  and  _20
REMARK   11  A    between atoms: _20  and  _21
REMARK   12  A    between atoms: _26  and  _28
REMARK   13  A    between atoms: _28  and  _29
REMARK   14  A    between atoms: _31  and  _33
REMARK   15  A    between atoms: _33  and  _34
REMARK   16  A    between atoms: _33  and  _36
REMARK   17  A    between atoms: _36  and  _37
REMARK   18  A    between atoms: _42  and  _43
REMARK   19  A    between atoms: _45  and  _47
REMARK   20  A    between atoms: _47  and  _48
REMARK   21  A    between atoms: _47  and  _50
REMARK   22  A    between atoms: _50  and  _51
REMARK   23  A    between atoms: _54  and  _56
REMARK   24  A    between atoms: _56  and  _57
REMARK   25  A    between atoms: _56  and  _59
REMARK   26  A    between atoms: _62  and  _64
REMARK   27  A    between atoms: _64  and  _65
REMARK   28  A    between atoms: _64  and  _67
REMARK   29  A    between atoms: _67  and  _68
REMARK   30  A    between atoms: _71  and  _73
REMARK   31  A    between atoms: _73  and  _74
REMARK   32  A    between atoms: _73  and  _76
REMARK   33  A    between atoms: _76  and  _77
REMARK   34  A    between atoms: _80  and  _82
REMARK   35  A    between atoms: _82  and  _83
REMARK   36  A    between atoms: _85  and  _87
REMARK   37  A    between atoms: _87  and  _88
REMARK   38  A    between atoms: _87  and  _90
REMARK   39  A    between atoms: _90  and  _91
REMARK   40  A    between atoms: _93  and  _95
REMARK   41  A    between atoms: _95  and  _96
REMARK   42  A    between atoms: _95  and  _98
REMARK   43  A    between atoms: _98  and  _99
REMARK   44  A    between atoms: _101  and  _103
REMARK   45  A    between atoms: _103  and  _104
REMARK   46  A    between atoms: _103  and  _106
REMARK   47  A    between atoms: _106  and  _107
REMARK   48  A    between atoms: _112  and  _114
REMARK   49  A    between atoms: _114  and  _115
REMARK   50  A    between atoms: _114  and  _117
REMARK   51  A    between atoms: _117  and  _118
REMARK   52  A    between atoms: _124  and  _126
REMARK   53  A    between atoms: _126  and  _127
REMARK   54  A    between atoms: _126  and  _129
REMARK   55  A    between atoms: _133  and  _134
REMARK   56  A    between atoms: _139  and  _141
REMARK   57  A    between atoms: _141  and  _142
REMARK   58  A    between atoms: _141  and  _144
REMARK   59  A    between atoms: _144  and  _145
REMARK   60  A    between atoms: _150  and  _151
REMARK   61  A    between atoms: _153  and  _155
REMARK   62  A    between atoms: _155  and  _156
REMARK   63  A    between atoms: _155  and  _158
REMARK   64  A    between atoms: _158  and  _159
REMARK   65  A    between atoms: _162  and  _164
REMARK   66  A    between atoms: _164  and  _165
REMARK   67  A    between atoms: _164  and  _167
REMARK   68  A    between atoms: _167  and  _168
REMARK   69  A    between atoms: _168  and  _169
REMARK   70  A    between atoms: _174  and  _176
REMARK   71  A    between atoms: _176  and  _177
REMARK   72  A    between atoms: _179  and  _181
REMARK   73  A    between atoms: _181  and  _182
REMARK   74  A    between atoms: _181  and  _184
REMARK   75  A    between atoms: _184  and  _185
REMARK   76  A    between atoms: _185  and  _186
REMARK   77  A    between atoms: _186  and  _187
REMARK   78  A    between atoms: _187  and  _188
REMARK   79  A    between atoms: _192  and  _194
REMARK   80  A    between atoms: _194  and  _195
REMARK   81  A    between atoms: _194  and  _197
REMARK   82  A    between atoms: _197  and  _198
REMARK   83  A    between atoms: _208  and  _210
REMARK   84  A    between atoms: _210  and  _211
REMARK   85  A    between atoms: _210  and  _213
REMARK   86  A    between atoms: _213  and  _214
REMARK   87  A    between atoms: _217  and  _219
REMARK   88  A    between atoms: _219  and  _220
REMARK   89  A    between atoms: _219  and  _222
REMARK   90  A    between atoms: _222  and  _223
REMARK   91  A    between atoms: _223  and  _224
REMARK   92  A    between atoms: _224  and  _225
REMARK   93  A    between atoms: _225  and  _226
REMARK   94  A    between atoms: _230  and  _232
REMARK   95  A    between atoms: _232  and  _233
REMARK   96  A    between atoms: _232  and  _235
REMARK   97  A    between atoms: _235  and  _236
REMARK   98  A    between atoms: _242  and  _244
REMARK   99  A    between atoms: _244  and  _245
REMARK  100  A    between atoms: _244  and  _247
REMARK  101  A    between atoms: _247  and  _248
REMARK  102  A    between atoms: _254  and  _256
REMARK  103  A    between atoms: _256  and  _257
REMARK  104  A    between atoms: _256  and  _259
REMARK  105  A    between atoms: _259  and  _260
REMARK  106  A    between atoms: _263  and  _265
REMARK  107  A    between atoms: _265  and  _266
REMARK  108  A    between atoms: _265  and  _268
REMARK  109  A    between atoms: _268  and  _269
REMARK  110  A    between atoms: _274  and  _276
REMARK  111  A    between atoms: _276  and  _277
REMARK  112  A    between atoms: _276  and  _279
REMARK  113  A    between atoms: _279  and  _280
REMARK  114  A    between atoms: _282  and  _284
REMARK  115  A    between atoms: _284  and  _285
REMARK  116  A    between atoms: _284  and  _287
REMARK  117  A    between atoms: _287  and  _288
REMARK  118  A    between atoms: _298  and  _300
REMARK  119  A    between atoms: _300  and  _301
REMARK  120  A    between atoms: _303  and  _305
REMARK  121  A    between atoms: _305  and  _306
REMARK  122  A    between atoms: _305  and  _308
REMARK  123  A    between atoms: _308  and  _309
REMARK  124  A    between atoms: _312  and  _314
REMARK  125  A    between atoms: _314  and  _315
REMARK  126  A    between atoms: _314  and  _317
REMARK  127  A    between atoms: _317  and  _318
REMARK  128  A    between atoms: _321  and  _323
REMARK  129  A    between atoms: _323  and  _324
REMARK  130  A    between atoms: _326  and  _328
REMARK  131  A    between atoms: _328  and  _329
REMARK  132  A    between atoms: _328  and  _331
REMARK  133  A    between atoms: _331  and  _332
REMARK  134  A    between atoms: _335  and  _337
REMARK  135  A    between atoms: _337  and  _338
REMARK  136  A    between atoms: _341  and  _343
REMARK  137  A    between atoms: _343  and  _344
REMARK  138  A    between atoms: _343  and  _346
REMARK  139  A    between atoms: _346  and  _347
REMARK  140  A    between atoms: _350  and  _352
REMARK  141  A    between atoms: _352  and  _353
REMARK  142  A    between atoms: _352  and  _355
REMARK  143  A    between atoms: _355  and  _356
REMARK  144  A    between atoms: _361  and  _362
REMARK  145  A    between atoms: _364  and  _366
REMARK  146  A    between atoms: _366  and  _367
REMARK  147  A    between atoms: _366  and  _369
REMARK  148  A    between atoms: _369  and  _370
REMARK  149  A    between atoms: _375  and  _376
REMARK  150  A    between atoms: _378  and  _380
REMARK  151  A    between atoms: _380  and  _381
REMARK  152  A    between atoms: _380  and  _383
REMARK  153  A    between atoms: _383  and  _384
REMARK  154  A    between atoms: _387  and  _389
REMARK  155  A    between atoms: _389  and  _390
REMARK  156  A    between atoms: _389  and  _392
REMARK  157  A    between atoms: _392  and  _393
REMARK  158  A    between atoms: _393  and  _394
REMARK  159  A    between atoms: _394  and  _395
REMARK  160  A    between atoms: _395  and  _396
REMARK  161  A    between atoms: _400  and  _402
REMARK  162  A    between atoms: _402  and  _403
REMARK  163  A    between atoms: _402  and  _405
REMARK  164  A    between atoms: _405  and  _406
REMARK  165  A    between atoms: _409  and  _411
REMARK  166  A    between atoms: _411  and  _412
REMARK  167  A    between atoms: _411  and  _414
REMARK  168  A    between atoms: _417  and  _419
REMARK  169  A    between atoms: _419  and  _420
REMARK  170  A    between atoms: _419  and  _422
REMARK  171  A    between atoms: _422  and  _423
REMARK  172  A    between atoms: _426  and  _428
REMARK  173  A    between atoms: _428  and  _429
REMARK  174  A    between atoms: _428  and  _431
REMARK  175  A    between atoms: _431  and  _432
REMARK  176  A    between atoms: _434  and  _436
REMARK  177  A    between atoms: _436  and  _437
REMARK  178  A    between atoms: _439  and  _441
REMARK  179  A    between atoms: _441  and  _442
REMARK  180  A    between atoms: _441  and  _444
REMARK  181  A    between atoms: _444  and  _445
REMARK  182  A    between atoms: _448  and  _450
REMARK  183  A    between atoms: _450  and  _451
REMARK  184  A    between atoms: _450  and  _453
REMARK  185  A    between atoms: _453  and  _454
REMARK  186  A    between atoms: _457  and  _459
REMARK  187  A    between atoms: _459  and  _460
REMARK  188  A    between atoms: _459  and  _462
REMARK  189  A    between atoms: _462  and  _463
REMARK  190  A    between atoms: _468  and  _470
REMARK  191  A    between atoms: _470  and  _471
REMARK  192  A    between atoms: _470  and  _473
REMARK  193  A    between atoms: _473  and  _474
REMARK  194  A    between atoms: _474  and  _475
REMARK  195  A    between atoms: _475  and  _476
REMARK  196  A    between atoms: _485  and  _487
REMARK  197  A    between atoms: _487  and  _488
REMARK  198  A    between atoms: _487  and  _490
REMARK  199  A    between atoms: _490  and  _491
REMARK  200  A    between atoms: _493  and  _495
REMARK  201  A    between atoms: _495  and  _496
REMARK  202  A    between atoms: _495  and  _498
REMARK  203  A    between atoms: _498  and  _499
REMARK  204  A    between atoms: _499  and  _500
REMARK  205  A    between atoms: _505  and  _507
REMARK  206  A    between atoms: _507  and  _508
REMARK  207  A    between atoms: _507  and  _510
REMARK  208  A    between atoms: _510  and  _511
REMARK  209  A    between atoms: _513  and  _515
REMARK  210  A    between atoms: _515  and  _516
REMARK  211  A    between atoms: _515  and  _518
REMARK  212  A    between atoms: _518  and  _519
REMARK  213  A    between atoms: _521  and  _523
REMARK  214  A    between atoms: _523  and  _524
REMARK  215  A    between atoms: _523  and  _526
REMARK  216  A    between atoms: _526  and  _527
REMARK  217  A    between atoms: _530  and  _532
REMARK  218  A    between atoms: _532  and  _533
REMARK  219  A    between atoms: _535  and  _537
REMARK  220  A    between atoms: _537  and  _538
REMARK  221  A    between atoms: _537  and  _540
REMARK  222  A    between atoms: _540  and  _541
REMARK  223  A    between atoms: _544  and  _546
REMARK  224  A    between atoms: _546  and  _547
REMARK  225  A    between atoms: _546  and  _549
REMARK  226  A    between atoms: _552  and  _554
REMARK  227  A    between atoms: _554  and  _555
REMARK  228  A    between atoms: _554  and  _557
REMARK  229  A    between atoms: _557  and  _558
REMARK  230  A    between atoms: _558  and  _559
REMARK                            x       y       z     vdW  Elec       q    Type
REMARK                         _______ _______ _______ _____ _____    ______ ____
ROOT
ATOM      1  O   HOH     1       4.171  19.985  24.211  0.00  0.00    +0.000 OA
ENDROOT
TORSDOF 0
REMARK  Name = ../refined-set-2016/4fsl/4fsl_pocket.pdb
REMARK  230 active torsions:
REMARK  status: ('A' for Active; 'I' for Inactive)
REMARK    1  A    between atoms: _1  and  _3
REMARK    2  A    between atoms: _3  and  _4
REMARK    3  A    between atoms: _3  and  _6
REMARK    4  A    between atoms: _6  and  _7
REMARK    5  A    between atoms: _9  and  _11
REMARK    6  A    between atoms: _11  and  _12
REMARK    7  A    between atoms: _14  and  _16
REMARK    8  A    between atoms: _16  and  _17
REMARK    9  A    between atoms: _16  and  _19
REMARK   10  A    between atoms: _19  and  _20
REMARK   11  A    between atoms: _20  and  _21
REMARK   12  A    between atoms: _26  and  _28
REMARK   13  A    between atoms: _28  and  _29
REMARK   14  A    between atoms: _31  and  _33
REMARK   15  A    between atoms: _33  and  _34
REMARK   16  A    between atoms: _33  and  _36
REMARK   17  A    between atoms: _36  and  _37
REMARK   18  A    between atoms: _42  and  _43
REMARK   19  A    between atoms: _45  and  _47
REMARK   20  A    between atoms: _47  and  _48
REMARK   21  A    between atoms: _47  and  _50
REMARK   22  A    between atoms: _50  and  _51
REMARK   23  A    between atoms: _54  and  _56
REMARK   24  A    between atoms: _56  and  _57
REMARK   25  A    between atoms: _56  and  _59
REMARK   26  A    between atoms: _62  and  _64
REMARK   27  A    between atoms: _64  and  _65
REMARK   28  A    between atoms: _64  and  _67
REMARK   29  A    between atoms: _67  and  _68
REMARK   30  A    between atoms: _71  and  _73
REMARK   31  A    between atoms: _73  and  _74
REMARK   32  A    between atoms: _73  and  _76
REMARK   33  A    between atoms: _76  and  _77
REMARK   34  A    between atoms: _80  and  _82
REMARK   35  A    between atoms: _82  and  _83
REMARK   36  A    between atoms: _85  and  _87
REMARK   37  A    between atoms: _87  and  _88
REMARK   38  A    between atoms: _87  and  _90
REMARK   39  A    between atoms: _90  and  _91
REMARK   40  A    between atoms: _93  and  _95
REMARK   41  A    between atoms: _95  and  _96
REMARK   42  A    between atoms: _95  and  _98
REMARK   43  A    between atoms: _98  and  _99
REMARK   44  A    between atoms: _101  and  _103
REMARK   45  A    between atoms: _103  and  _104
REMARK   46  A    between atoms: _103  and  _106
REMARK   47  A    between atoms: _106  and  _107
REMARK   48  A    between atoms: _112  and  _114
REMARK   49  A    between atoms: _114  and  _115
REMARK   50  A    between atoms: _114  and  _117
REMARK   51  A    between atoms: _117  and  _118
REMARK   52  A    between atoms: _124  and  _126
REMARK   53  A    between atoms: _126  and  _127
REMARK   54  A    between atoms: _126  and  _129
REMARK   55  A    between atoms: _133  and  _134
REMARK   56  A    between atoms: _139  and  _141
REMARK   57  A    between atoms: _141  and  _142
REMARK   58  A    between atoms: _141  and  _144
REMARK   59  A    between atoms: _144  and  _145
REMARK   60  A    between atoms: _150  and  _151
REMARK   61  A    between atoms: _153  and  _155
REMARK   62  A    between atoms: _155  and  _156
REMARK   63  A    between atoms: _155  and  _158
REMARK   64  A    between atoms: _158  and  _159
REMARK   65  A    between atoms: _162  and  _164
REMARK   66  A    between atoms: _164  and  _165
REMARK   67  A    between atoms: _164  and  _167
REMARK   68  A    between atoms: _167  and  _168
REMARK   69  A    between atoms: _168  and  _169
REMARK   70  A    between atoms: _174  and  _176
REMARK   71  A    between atoms: _176  and  _177
REMARK   72  A    between atoms: _179  and  _181
REMARK   73  A    between atoms: _181  and  _182
REMARK   74  A    between atoms: _181  and  _184
REMARK   75  A    between atoms: _184  and  _185
REMARK   76  A    between atoms: _185  and  _186
REMARK   77  A    between atoms: _186  and  _187
REMARK   78  A    between atoms: _187  and  _188
REMARK   79  A    between atoms: _192  and  _194
REMARK   80  A    between atoms: _194  and  _195
REMARK   81  A    between atoms: _194  and  _197
REMARK   82  A    between atoms: _197  and  _198
REMARK   83  A    between atoms: _208  and  _210
REMARK   84  A    between atoms: _210  and  _211
REMARK   85  A    between atoms: _210  and  _213
REMARK   86  A    between atoms: _213  and  _214
REMARK   87  A    between atoms: _217  and  _219
REMARK   88  A    between atoms: _219  and  _220
REMARK   89  A    between atoms: _219  and  _222
REMARK   90  A    between atoms: _222  and  _223
REMARK   91  A    between atoms: _223  and  _224
REMARK   92  A    between atoms: _224  and  _225
REMARK   93  A    between atoms: _225  and  _226
REMARK   94  A    between atoms: _230  and  _232
REMARK   95  A    between atoms: _232  and  _233
REMARK   96  A    between atoms: _232  and  _235
REMARK   97  A    between atoms: _235  and  _236
REMARK   98  A    between atoms: _242  and  _244
REMARK   99  A    between atoms: _244  and  _245
REMARK  100  A    between atoms: _244  and  _247
REMARK  101  A    between atoms: _247  and  _248
REMARK  102  A    between atoms: _254  and  _256
REMARK  103  A    between atoms: _256  and  _257
REMARK  104  A    between atoms: _256  and  _259
REMARK  105  A    between atoms: _259  and  _260
REMARK  106  A    between atoms: _263  and  _265
REMARK  107  A    between atoms: _265  and  _266
REMARK  108  A    between atoms: _265  and  _268
REMARK  109  A    between atoms: _268  and  _269
REMARK  110  A    between atoms: _274  and  _276
REMARK  111  A    between atoms: _276  and  _277
REMARK  112  A    between atoms: _276  and  _279
REMARK  113  A    between atoms: _279  and  _280
REMARK  114  A    between atoms: _282  and  _284
REMARK  115  A    between atoms: _284  and  _285
REMARK  116  A    between atoms: _284  and  _287
REMARK  117  A    between atoms: _287  and  _288
REMARK  118  A    between atoms: _298  and  _300
REMARK  119  A    between atoms: _300  and  _301
REMARK  120  A    between atoms: _303  and  _305
REMARK  121  A    between atoms: _305  and  _306
REMARK  122  A    between atoms: _305  and  _308
REMARK  123  A    between atoms: _308  and  _309
REMARK  124  A    between atoms: _312  and  _314
REMARK  125  A    between atoms: _314  and  _315
REMARK  126  A    between atoms: _314  and  _317
REMARK  127  A    between atoms: _317  and  _318
REMARK  128  A    between atoms: _321  and  _323
REMARK  129  A    between atoms: _323  and  _324
REMARK  130  A    between atoms: _326  and  _328
REMARK  131  A    between atoms: _328  and  _329
REMARK  132  A    between atoms: _328  and  _331
REMARK  133  A    between atoms: _331  and  _332
REMARK  134  A    between atoms: _335  and  _337
REMARK  135  A    between atoms: _337  and  _338
REMARK  136  A    between atoms: _341  and  _343
REMARK  137  A    between atoms: _343  and  _344
REMARK  138  A    between atoms: _343  and  _346
REMARK  139  A    between atoms: _346  and  _347
REMARK  140  A    between atoms: _350  and  _352
REMARK  141  A    between atoms: _352  and  _353
REMARK  142  A    between atoms: _352  and  _355
REMARK  143  A    between atoms: _355  and  _356
REMARK  144  A    between atoms: _361  and  _362
REMARK  145  A    between atoms: _364  and  _366
REMARK  146  A    between atoms: _366  and  _367
REMARK  147  A    between atoms: _366  and  _369
REMARK  148  A    between atoms: _369  and  _370
REMARK  149  A    between atoms: _375  and  _376
REMARK  150  A    between atoms: _378  and  _380
REMARK  151  A    between atoms: _380  and  _381
REMARK  152  A    between atoms: _380  and  _383
REMARK  153  A    between atoms: _383  and  _384
REMARK  154  A    between atoms: _387  and  _389
REMARK  155  A    between atoms: _389  and  _390
REMARK  156  A    between atoms: _389  and  _392
REMARK  157  A    between atoms: _392  and  _393
REMARK  158  A    between atoms: _393  and  _394
REMARK  159  A    between atoms: _394  and  _395
REMARK  160  A    between atoms: _395  and  _396
REMARK  161  A    between atoms: _400  and  _402
REMARK  162  A    between atoms: _402  and  _403
REMARK  163  A    between atoms: _402  and  _405
REMARK  164  A    between atoms: _405  and  _406
REMARK  165  A    between atoms: _409  and  _411
REMARK  166  A    between atoms: _411  and  _412
REMARK  167  A    between atoms: _411  and  _414
REMARK  168  A    between atoms: _417  and  _419
REMARK  169  A    between atoms: _419  and  _420
REMARK  170  A    between atoms: _419  and  _422
REMARK  171  A    between atoms: _422  and  _423
REMARK  172  A    between atoms: _426  and  _428
REMARK  173  A    between atoms: _428  and  _429
REMARK  174  A    between atoms: _428  and  _431
REMARK  175  A    between atoms: _431  and  _432
REMARK  176  A    between atoms: _434  and  _436
REMARK  177  A    between atoms: _436  and  _437
REMARK  178  A    between atoms: _439  and  _441
REMARK  179  A    between atoms: _441  and  _442
REMARK  180  A    between atoms: _441  and  _444
REMARK  181  A    between atoms: _444  and  _445
REMARK  182  A    between atoms: _448  and  _450
REMARK  183  A    between atoms: _450  and  _451
REMARK  184  A    between atoms: _450  and  _453
REMARK  185  A    between atoms: _453  and  _454
REMARK  186  A    between atoms: _457  and  _459
REMARK  187  A    between atoms: _459  and  _460
REMARK  188  A    between atoms: _459  and  _462
REMARK  189  A    between atoms: _462  and  _463
REMARK  190  A    between atoms: _468  and  _470
REMARK  191  A    between atoms: _470  and  _471
REMARK  192  A    between atoms: _470  and  _473
REMARK  193  A    between atoms: _473  and  _474
REMARK  194  A    between atoms: _474  and  _475
REMARK  195  A    between atoms: _475  and  _476
REMARK  196  A    between atoms: _485  and  _487
REMARK  197  A    between atoms: _487  and  _488
REMARK  198  A    between atoms: _487  and  _490
REMARK  199  A    between atoms: _490  and  _491
REMARK  200  A    between atoms: _493  and  _495
REMARK  201  A    between atoms: _495  and  _496
REMARK  202  A    between atoms: _495  and  _498
REMARK  203  A    between atoms: _498  and  _499
REMARK  204  A    between atoms: _499  and  _500
REMARK  205  A    between atoms: _505  and  _507
REMARK  206  A    between atoms: _507  and  _508
REMARK  207  A    between atoms: _507  and  _510
REMARK  208  A    between atoms: _510  and  _511
REMARK  209  A    between atoms: _513  and  _515
REMARK  210  A    between atoms: _515  and  _516
REMARK  211  A    between atoms: _515  and  _518
REMARK  212  A    between atoms: _518  and  _519
REMARK  213  A    between atoms: _521  and  _523
REMARK  214  A    between atoms: _523  and  _524
REMARK  215  A    between atoms: _523  and  _526
REMARK  216  A    between atoms: _526  and  _527
REMARK  217  A    between atoms: _530  and  _532
REMARK  218  A    between atoms: _532  and  _533
REMARK  219  A    between atoms: _535  and  _537
REMARK  220  A    between atoms: _537  and  _538
REMARK  221  A    between atoms: _537  and  _540
REMARK  222  A    between atoms: _540  and  _541
REMARK  223  A    between atoms: _544  and  _546
REMARK  224  A    between atoms: _546  and  _547
REMARK  225  A    between atoms: _546  and  _549
REMARK  226  A    between atoms: _552  and  _554
REMARK  227  A    between atoms: _554  and  _555
REMARK  228  A    between atoms: _554  and  _557
REMARK  229  A    between atoms: _557  and  _558
REMARK  230  A    between atoms: _558  and  _559
REMARK                            x       y       z     vdW  Elec       q    Type
REMARK                         _______ _______ _______ _____ _____    ______ ____
ROOT
ATOM      1  O   HOH     1     -13.489  23.376  31.397  0.00  0.00    +0.000 OA
ENDROOT
TORSDOF 0
REMARK  Name = ../refined-set-2016/4fsl/4fsl_pocket.pdb
REMARK  230 active torsions:
REMARK  status: ('A' for Active; 'I' for Inactive)
REMARK    1  A    between atoms: _1  and  _3
REMARK    2  A    between atoms: _3  and  _4
REMARK    3  A    between atoms: _3  and  _6
REMARK    4  A    between atoms: _6  and  _7
REMARK    5  A    between atoms: _9  and  _11
REMARK    6  A    between atoms: _11  and  _12
REMARK    7  A    between atoms: _14  and  _16
REMARK    8  A    between atoms: _16  and  _17
REMARK    9  A    between atoms: _16  and  _19
REMARK   10  A    between atoms: _19  and  _20
REMARK   11  A    between atoms: _20  and  _21
REMARK   12  A    between atoms: _26  and  _28
REMARK   13  A    between atoms: _28  and  _29
REMARK   14  A    between atoms: _31  and  _33
REMARK   15  A    between atoms: _33  and  _34
REMARK   16  A    between atoms: _33  and  _36
REMARK   17  A    between atoms: _36  and  _37
REMARK   18  A    between atoms: _42  and  _43
REMARK   19  A    between atoms: _45  and  _47
REMARK   20  A    between atoms: _47  and  _48
REMARK   21  A    between atoms: _47  and  _50
REMARK   22  A    between atoms: _50  and  _51
REMARK   23  A    between atoms: _54  and  _56
REMARK   24  A    between atoms: _56  and  _57
REMARK   25  A    between atoms: _56  and  _59
REMARK   26  A    between atoms: _62  and  _64
REMARK   27  A    between atoms: _64  and  _65
REMARK   28  A    between atoms: _64  and  _67
REMARK   29  A    between atoms: _67  and  _68
REMARK   30  A    between atoms: _71  and  _73
REMARK   31  A    between atoms: _73  and  _74
REMARK   32  A    between atoms: _73  and  _76
REMARK   33  A    between atoms: _76  and  _77
REMARK   34  A    between atoms: _80  and  _82
REMARK   35  A    between atoms: _82  and  _83
REMARK   36  A    between atoms: _85  and  _87
REMARK   37  A    between atoms: _87  and  _88
REMARK   38  A    between atoms: _87  and  _90
REMARK   39  A    between atoms: _90  and  _91
REMARK   40  A    between atoms: _93  and  _95
REMARK   41  A    between atoms: _95  and  _96
REMARK   42  A    between atoms: _95  and  _98
REMARK   43  A    between atoms: _98  and  _99
REMARK   44  A    between atoms: _101  and  _103
REMARK   45  A    between atoms: _103  and  _104
REMARK   46  A    between atoms: _103  and  _106
REMARK   47  A    between atoms: _106  and  _107
REMARK   48  A    between atoms: _112  and  _114
REMARK   49  A    between atoms: _114  and  _115
REMARK   50  A    between atoms: _114  and  _117
REMARK   51  A    between atoms: _117  and  _118
REMARK   52  A    between atoms: _124  and  _126
REMARK   53  A    between atoms: _126  and  _127
REMARK   54  A    between atoms: _126  and  _129
REMARK   55  A    between atoms: _133  and  _134
REMARK   56  A    between atoms: _139  and  _141
REMARK   57  A    between atoms: _141  and  _142
REMARK   58  A    between atoms: _141  and  _144
REMARK   59  A    between atoms: _144  and  _145
REMARK   60  A    between atoms: _150  and  _151
REMARK   61  A    between atoms: _153  and  _155
REMARK   62  A    between atoms: _155  and  _156
REMARK   63  A    between atoms: _155  and  _158
REMARK   64  A    between atoms: _158  and  _159
REMARK   65  A    between atoms: _162  and  _164
REMARK   66  A    between atoms: _164  and  _165
REMARK   67  A    between atoms: _164  and  _167
REMARK   68  A    between atoms: _167  and  _168
REMARK   69  A    between atoms: _168  and  _169
REMARK   70  A    between atoms: _174  and  _176
REMARK   71  A    between atoms: _176  and  _177
REMARK   72  A    between atoms: _179  and  _181
REMARK   73  A    between atoms: _181  and  _182
REMARK   74  A    between atoms: _181  and  _184
REMARK   75  A    between atoms: _184  and  _185
REMARK   76  A    between atoms: _185  and  _186
REMARK   77  A    between atoms: _186  and  _187
REMARK   78  A    between atoms: _187  and  _188
REMARK   79  A    between atoms: _192  and  _194
REMARK   80  A    between atoms: _194  and  _195
REMARK   81  A    between atoms: _194  and  _197
REMARK   82  A    between atoms: _197  and  _198
REMARK   83  A    between atoms: _208  and  _210
REMARK   84  A    between atoms: _210  and  _211
REMARK   85  A    between atoms: _210  and  _213
REMARK   86  A    between atoms: _213  and  _214
REMARK   87  A    between atoms: _217  and  _219
REMARK   88  A    between atoms: _219  and  _220
REMARK   89  A    between atoms: _219  and  _222
REMARK   90  A    between atoms: _222  and  _223
REMARK   91  A    between atoms: _223  and  _224
REMARK   92  A    between atoms: _224  and  _225
REMARK   93  A    between atoms: _225  and  _226
REMARK   94  A    between atoms: _230  and  _232
REMARK   95  A    between atoms: _232  and  _233
REMARK   96  A    between atoms: _232  and  _235
REMARK   97  A    between atoms: _235  and  _236
REMARK   98  A    between atoms: _242  and  _244
REMARK   99  A    between atoms: _244  and  _245
REMARK  100  A    between atoms: _244  and  _247
REMARK  101  A    between atoms: _247  and  _248
REMARK  102  A    between atoms: _254  and  _256
REMARK  103  A    between atoms: _256  and  _257
REMARK  104  A    between atoms: _256  and  _259
REMARK  105  A    between atoms: _259  and  _260
REMARK  106  A    between atoms: _263  and  _265
REMARK  107  A    between atoms: _265  and  _266
REMARK  108  A    between atoms: _265  and  _268
REMARK  109  A    between atoms: _268  and  _269
REMARK  110  A    between atoms: _274  and  _276
REMARK  111  A    between atoms: _276  and  _277
REMARK  112  A    between atoms: _276  and  _279
REMARK  113  A    between atoms: _279  and  _280
REMARK  114  A    between atoms: _282  and  _284
REMARK  115  A    between atoms: _284  and  _285
REMARK  116  A    between atoms: _284  and  _287
REMARK  117  A    between atoms: _287  and  _288
REMARK  118  A    between atoms: _298  and  _300
REMARK  119  A    between atoms: _300  and  _301
REMARK  120  A    between atoms: _303  and  _305
REMARK  121  A    between atoms: _305  and  _306
REMARK  122  A    between atoms: _305  and  _308
REMARK  123  A    between atoms: _308  and  _309
REMARK  124  A    between atoms: _312  and  _314
REMARK  125  A    between atoms: _314  and  _315
REMARK  126  A    between atoms: _314  and  _317
REMARK  127  A    between atoms: _317  and  _318
REMARK  128  A    between atoms: _321  and  _323
REMARK  129  A    between atoms: _323  and  _324
REMARK  130  A    between atoms: _326  and  _328
REMARK  131  A    between atoms: _328  and  _329
REMARK  132  A    between atoms: _328  and  _331
REMARK  133  A    between atoms: _331  and  _332
REMARK  134  A    between atoms: _335  and  _337
REMARK  135  A    between atoms: _337  and  _338
REMARK  136  A    between atoms: _341  and  _343
REMARK  137  A    between atoms: _343  and  _344
REMARK  138  A    between atoms: _343  and  _346
REMARK  139  A    between atoms: _346  and  _347
REMARK  140  A    between atoms: _350  and  _352
REMARK  141  A    between atoms: _352  and  _353
REMARK  142  A    between atoms: _352  and  _355
REMARK  143  A    between atoms: _355  and  _356
REMARK  144  A    between atoms: _361  and  _362
REMARK  145  A    between atoms: _364  and  _366
REMARK  146  A    between atoms: _366  and  _367
REMARK  147  A    between atoms: _366  and  _369
REMARK  148  A    between atoms: _369  and  _370
REMARK  149  A    between atoms: _375  and  _376
REMARK  150  A    between atoms: _378  and  _380
REMARK  151  A    between atoms: _380  and  _381
REMARK  152  A    between atoms: _380  and  _383
REMARK  153  A    between atoms: _383  and  _384
REMARK  154  A    between atoms: _387  and  _389
REMARK  155  A    between atoms: _389  and  _390
REMARK  156  A    between atoms: _389  and  _392
REMARK  157  A    between atoms: _392  and  _393
REMARK  158  A    between atoms: _393  and  _394
REMARK  159  A    between atoms: _394  and  _395
REMARK  160  A    between atoms: _395  and  _396
REMARK  161  A    between atoms: _400  and  _402
REMARK  162  A    between atoms: _402  and  _403
REMARK  163  A    between atoms: _402  and  _405
REMARK  164  A    between atoms: _405  and  _406
REMARK  165  A    between atoms: _409  and  _411
REMARK  166  A    between atoms: _411  and  _412
REMARK  167  A    between atoms: _411  and  _414
REMARK  168  A    between atoms: _417  and  _419
REMARK  169  A    between atoms: _419  and  _420
REMARK  170  A    between atoms: _419  and  _422
REMARK  171  A    between atoms: _422  and  _423
REMARK  172  A    between atoms: _426  and  _428
REMARK  173  A    between atoms: _428  and  _429
REMARK  174  A    between atoms: _428  and  _431
REMARK  175  A    between atoms: _431  and  _432
REMARK  176  A    between atoms: _434  and  _436
REMARK  177  A    between atoms: _436  and  _437
REMARK  178  A    between atoms: _439  and  _441
REMARK  179  A    between atoms: _441  and  _442
REMARK  180  A    between atoms: _441  and  _444
REMARK  181  A    between atoms: _444  and  _445
REMARK  182  A    between atoms: _448  and  _450
REMARK  183  A    between atoms: _450  and  _451
REMARK  184  A    between atoms: _450  and  _453
REMARK  185  A    between atoms: _453  and  _454
REMARK  186  A    between atoms: _457  and  _459
REMARK  187  A    between atoms: _459  and  _460
REMARK  188  A    between atoms: _459  and  _462
REMARK  189  A    between atoms: _462  and  _463
REMARK  190  A    between atoms: _468  and  _470
REMARK  191  A    between atoms: _470  and  _471
REMARK  192  A    between atoms: _470  and  _473
REMARK  193  A    between atoms: _473  and  _474
REMARK  194  A    between atoms: _474  and  _475
REMARK  195  A    between atoms: _475  and  _476
REMARK  196  A    between atoms: _485  and  _487
REMARK  197  A    between atoms: _487  and  _488
REMARK  198  A    between atoms: _487  and  _490
REMARK  199  A    between atoms: _490  and  _491
REMARK  200  A    between atoms: _493  and  _495
REMARK  201  A    between atoms: _495  and  _496
REMARK  202  A    between atoms: _495  and  _498
REMARK  203  A    between atoms: _498  and  _499
REMARK  204  A    between atoms: _499  and  _500
REMARK  205  A    between atoms: _505  and  _507
REMARK  206  A    between atoms: _507  and  _508
REMARK  207  A    between atoms: _507  and  _510
REMARK  208  A    between atoms: _510  and  _511
REMARK  209  A    between atoms: _513  and  _515
REMARK  210  A    between atoms: _515  and  _516
REMARK  211  A    between atoms: _515  and  _518
REMARK  212  A    between atoms: _518  and  _519
REMARK  213  A    between atoms: _521  and  _523
REMARK  214  A    between atoms: _523  and  _524
REMARK  215  A    between atoms: _523  and  _526
REMARK  216  A    between atoms: _526  and  _527
REMARK  217  A    between atoms: _530  and  _532
REMARK  218  A    between atoms: _532  and  _533
REMARK  219  A    between atoms: _535  and  _537
REMARK  220  A    between atoms: _537  and  _538
REMARK  221  A    between atoms: _537  and  _540
REMARK  222  A    between atoms: _540  and  _541
REMARK  223  A    between atoms: _544  and  _546
REMARK  224  A    between atoms: _546  and  _547
REMARK  225  A    between atoms: _546  and  _549
REMARK  226  A    between atoms: _552  and  _554
REMARK  227  A    between atoms: _554  and  _555
REMARK  228  A    between atoms: _554  and  _557
REMARK  229  A    between atoms: _557  and  _558
REMARK  230  A    between atoms: _558  and  _559
REMARK                            x       y       z     vdW  Elec       q    Type
REMARK                         _______ _______ _______ _____ _____    ______ ____
ROOT
ATOM      1  O   HOH     1     -12.509  15.196  31.966  0.00  0.00    +0.000 OA
ENDROOT
TORSDOF 0
REMARK  Name = ../refined-set-2016/4fsl/4fsl_pocket.pdb
REMARK  230 active torsions:
REMARK  status: ('A' for Active; 'I' for Inactive)
REMARK    1  A    between atoms: _1  and  _3
REMARK    2  A    between atoms: _3  and  _4
REMARK    3  A    between atoms: _3  and  _6
REMARK    4  A    between atoms: _6  and  _7
REMARK    5  A    between atoms: _9  and  _11
REMARK    6  A    between atoms: _11  and  _12
REMARK    7  A    between atoms: _14  and  _16
REMARK    8  A    between atoms: _16  and  _17
REMARK    9  A    between atoms: _16  and  _19
REMARK   10  A    between atoms: _19  and  _20
REMARK   11  A    between atoms: _20  and  _21
REMARK   12  A    between atoms: _26  and  _28
REMARK   13  A    between atoms: _28  and  _29
REMARK   14  A    between atoms: _31  and  _33
REMARK   15  A    between atoms: _33  and  _34
REMARK   16  A    between atoms: _33  and  _36
REMARK   17  A    between atoms: _36  and  _37
REMARK   18  A    between atoms: _42  and  _43
REMARK   19  A    between atoms: _45  and  _47
REMARK   20  A    between atoms: _47  and  _48
REMARK   21  A    between atoms: _47  and  _50
REMARK   22  A    between atoms: _50  and  _51
REMARK   23  A    between atoms: _54  and  _56
REMARK   24  A    between atoms: _56  and  _57
REMARK   25  A    between atoms: _56  and  _59
REMARK   26  A    between atoms: _62  and  _64
REMARK   27  A    between atoms: _64  and  _65
REMARK   28  A    between atoms: _64  and  _67
REMARK   29  A    between atoms: _67  and  _68
REMARK   30  A    between atoms: _71  and  _73
REMARK   31  A    between atoms: _73  and  _74
REMARK   32  A    between atoms: _73  and  _76
REMARK   33  A    between atoms: _76  and  _77
REMARK   34  A    between atoms: _80  and  _82
REMARK   35  A    between atoms: _82  and  _83
REMARK   36  A    between atoms: _85  and  _87
REMARK   37  A    between atoms: _87  and  _88
REMARK   38  A    between atoms: _87  and  _90
REMARK   39  A    between atoms: _90  and  _91
REMARK   40  A    between atoms: _93  and  _95
REMARK   41  A    between atoms: _95  and  _96
REMARK   42  A    between atoms: _95  and  _98
REMARK   43  A    between atoms: _98  and  _99
REMARK   44  A    between atoms: _101  and  _103
REMARK   45  A    between atoms: _103  and  _104
REMARK   46  A    between atoms: _103  and  _106
REMARK   47  A    between atoms: _106  and  _107
REMARK   48  A    between atoms: _112  and  _114
REMARK   49  A    between atoms: _114  and  _115
REMARK   50  A    between atoms: _114  and  _117
REMARK   51  A    between atoms: _117  and  _118
REMARK   52  A    between atoms: _124  and  _126
REMARK   53  A    between atoms: _126  and  _127
REMARK   54  A    between atoms: _126  and  _129
REMARK   55  A    between atoms: _133  and  _134
REMARK   56  A    between atoms: _139  and  _141
REMARK   57  A    between atoms: _141  and  _142
REMARK   58  A    between atoms: _141  and  _144
REMARK   59  A    between atoms: _144  and  _145
REMARK   60  A    between atoms: _150  and  _151
REMARK   61  A    between atoms: _153  and  _155
REMARK   62  A    between atoms: _155  and  _156
REMARK   63  A    between atoms: _155  and  _158
REMARK   64  A    between atoms: _158  and  _159
REMARK   65  A    between atoms: _162  and  _164
REMARK   66  A    between atoms: _164  and  _165
REMARK   67  A    between atoms: _164  and  _167
REMARK   68  A    between atoms: _167  and  _168
REMARK   69  A    between atoms: _168  and  _169
REMARK   70  A    between atoms: _174  and  _176
REMARK   71  A    between atoms: _176  and  _177
REMARK   72  A    between atoms: _179  and  _181
REMARK   73  A    between atoms: _181  and  _182
REMARK   74  A    between atoms: _181  and  _184
REMARK   75  A    between atoms: _184  and  _185
REMARK   76  A    between atoms: _185  and  _186
REMARK   77  A    between atoms: _186  and  _187
REMARK   78  A    between atoms: _187  and  _188
REMARK   79  A    between atoms: _192  and  _194
REMARK   80  A    between atoms: _194  and  _195
REMARK   81  A    between atoms: _194  and  _197
REMARK   82  A    between atoms: _197  and  _198
REMARK   83  A    between atoms: _208  and  _210
REMARK   84  A    between atoms: _210  and  _211
REMARK   85  A    between atoms: _210  and  _213
REMARK   86  A    between atoms: _213  and  _214
REMARK   87  A    between atoms: _217  and  _219
REMARK   88  A    between atoms: _219  and  _220
REMARK   89  A    between atoms: _219  and  _222
REMARK   90  A    between atoms: _222  and  _223
REMARK   91  A    between atoms: _223  and  _224
REMARK   92  A    between atoms: _224  and  _225
REMARK   93  A    between atoms: _225  and  _226
REMARK   94  A    between atoms: _230  and  _232
REMARK   95  A    between atoms: _232  and  _233
REMARK   96  A    between atoms: _232  and  _235
REMARK   97  A    between atoms: _235  and  _236
REMARK   98  A    between atoms: _242  and  _244
REMARK   99  A    between atoms: _244  and  _245
REMARK  100  A    between atoms: _244  and  _247
REMARK  101  A    between atoms: _247  and  _248
REMARK  102  A    between atoms: _254  and  _256
REMARK  103  A    between atoms: _256  and  _257
REMARK  104  A    between atoms: _256  and  _259
REMARK  105  A    between atoms: _259  and  _260
REMARK  106  A    between atoms: _263  and  _265
REMARK  107  A    between atoms: _265  and  _266
REMARK  108  A    between atoms: _265  and  _268
REMARK  109  A    between atoms: _268  and  _269
REMARK  110  A    between atoms: _274  and  _276
REMARK  111  A    between atoms: _276  and  _277
REMARK  112  A    between atoms: _276  and  _279
REMARK  113  A    between atoms: _279  and  _280
REMARK  114  A    between atoms: _282  and  _284
REMARK  115  A    between atoms: _284  and  _285
REMARK  116  A    between atoms: _284  and  _287
REMARK  117  A    between atoms: _287  and  _288
REMARK  118  A    between atoms: _298  and  _300
REMARK  119  A    between atoms: _300  and  _301
REMARK  120  A    between atoms: _303  and  _305
REMARK  121  A    between atoms: _305  and  _306
REMARK  122  A    between atoms: _305  and  _308
REMARK  123  A    between atoms: _308  and  _309
REMARK  124  A    between atoms: _312  and  _314
REMARK  125  A    between atoms: _314  and  _315
REMARK  126  A    between atoms: _314  and  _317
REMARK  127  A    between atoms: _317  and  _318
REMARK  128  A    between atoms: _321  and  _323
REMARK  129  A    between atoms: _323  and  _324
REMARK  130  A    between atoms: _326  and  _328
REMARK  131  A    between atoms: _328  and  _329
REMARK  132  A    between atoms: _328  and  _331
REMARK  133  A    between atoms: _331  and  _332
REMARK  134  A    between atoms: _335  and  _337
REMARK  135  A    between atoms: _337  and  _338
REMARK  136  A    between atoms: _341  and  _343
REMARK  137  A    between atoms: _343  and  _344
REMARK  138  A    between atoms: _343  and  _346
REMARK  139  A    between atoms: _346  and  _347
REMARK  140  A    between atoms: _350  and  _352
REMARK  141  A    between atoms: _352  and  _353
REMARK  142  A    between atoms: _352  and  _355
REMARK  143  A    between atoms: _355  and  _356
REMARK  144  A    between atoms: _361  and  _362
REMARK  145  A    between atoms: _364  and  _366
REMARK  146  A    between atoms: _366  and  _367
REMARK  147  A    between atoms: _366  and  _369
REMARK  148  A    between atoms: _369  and  _370
REMARK  149  A    between atoms: _375  and  _376
REMARK  150  A    between atoms: _378  and  _380
REMARK  151  A    between atoms: _380  and  _381
REMARK  152  A    between atoms: _380  and  _383
REMARK  153  A    between atoms: _383  and  _384
REMARK  154  A    between atoms: _387  and  _389
REMARK  155  A    between atoms: _389  and  _390
REMARK  156  A    between atoms: _389  and  _392
REMARK  157  A    between atoms: _392  and  _393
REMARK  158  A    between atoms: _393  and  _394
REMARK  159  A    between atoms: _394  and  _395
REMARK  160  A    between atoms: _395  and  _396
REMARK  161  A    between atoms: _400  and  _402
REMARK  162  A    between atoms: _402  and  _403
REMARK  163  A    between atoms: _402  and  _405
REMARK  164  A    between atoms: _405  and  _406
REMARK  165  A    between atoms: _409  and  _411
REMARK  166  A    between atoms: _411  and  _412
REMARK  167  A    between atoms: _411  and  _414
REMARK  168  A    between atoms: _417  and  _419
REMARK  169  A    between atoms: _419  and  _420
REMARK  170  A    between atoms: _419  and  _422
REMARK  171  A    between atoms: _422  and  _423
REMARK  172  A    between atoms: _426  and  _428
REMARK  173  A    between atoms: _428  and  _429
REMARK  174  A    between atoms: _428  and  _431
REMARK  175  A    between atoms: _431  and  _432
REMARK  176  A    between atoms: _434  and  _436
REMARK  177  A    between atoms: _436  and  _437
REMARK  178  A    between atoms: _439  and  _441
REMARK  179  A    between atoms: _441  and  _442
REMARK  180  A    between atoms: _441  and  _444
REMARK  181  A    between atoms: _444  and  _445
REMARK  182  A    between atoms: _448  and  _450
REMARK  183  A    between atoms: _450  and  _451
REMARK  184  A    between atoms: _450  and  _453
REMARK  185  A    between atoms: _453  and  _454
REMARK  186  A    between atoms: _457  and  _459
REMARK  187  A    between atoms: _459  and  _460
REMARK  188  A    between atoms: _459  and  _462
REMARK  189  A    between atoms: _462  and  _463
REMARK  190  A    between atoms: _468  and  _470
REMARK  191  A    between atoms: _470  and  _471
REMARK  192  A    between atoms: _470  and  _473
REMARK  193  A    between atoms: _473  and  _474
REMARK  194  A    between atoms: _474  and  _475
REMARK  195  A    between atoms: _475  and  _476
REMARK  196  A    between atoms: _485  and  _487
REMARK  197  A    between atoms: _487  and  _488
REMARK  198  A    between atoms: _487  and  _490
REMARK  199  A    between atoms: _490  and  _491
REMARK  200  A    between atoms: _493  and  _495
REMARK  201  A    between atoms: _495  and  _496
REMARK  202  A    between atoms: _495  and  _498
REMARK  203  A    between atoms: _498  and  _499
REMARK  204  A    between atoms: _499  and  _500
REMARK  205  A    between atoms: _505  and  _507
REMARK  206  A    between atoms: _507  and  _508
REMARK  207  A    between atoms: _507  and  _510
REMARK  208  A    between atoms: _510  and  _511
REMARK  209  A    between atoms: _513  and  _515
REMARK  210  A    between atoms: _515  and  _516
REMARK  211  A    between atoms: _515  and  _518
REMARK  212  A    between atoms: _518  and  _519
REMARK  213  A    between atoms: _521  and  _523
REMARK  214  A    between atoms: _523  and  _524
REMARK  215  A    between atoms: _523  and  _526
REMARK  216  A    between atoms: _526  and  _527
REMARK  217  A    between atoms: _530  and  _532
REMARK  218  A    between atoms: _532  and  _533
REMARK  219  A    between atoms: _535  and  _537
REMARK  220  A    between atoms: _537  and  _538
REMARK  221  A    between atoms: _537  and  _540
REMARK  222  A    between atoms: _540  and  _541
REMARK  223  A    between atoms: _544  and  _546
REMARK  224  A    between atoms: _546  and  _547
REMARK  225  A    between atoms: _546  and  _549
REMARK  226  A    between atoms: _552  and  _554
REMARK  227  A    between atoms: _554  and  _555
REMARK  228  A    between atoms: _554  and  _557
REMARK  229  A    between atoms: _557  and  _558
REMARK  230  A    between atoms: _558  and  _559
REMARK                            x       y       z     vdW  Elec       q    Type
REMARK                         _______ _______ _______ _____ _____    ______ ____
ROOT
ATOM      1  O   HOH     1      -3.943   2.485  30.692  0.00  0.00    +0.000 OA
ENDROOT
TORSDOF 0
REMARK  Name = ../refined-set-2016/4fsl/4fsl_pocket.pdb
REMARK  230 active torsions:
REMARK  status: ('A' for Active; 'I' for Inactive)
REMARK    1  A    between atoms: _1  and  _3
REMARK    2  A    between atoms: _3  and  _4
REMARK    3  A    between atoms: _3  and  _6
REMARK    4  A    between atoms: _6  and  _7
REMARK    5  A    between atoms: _9  and  _11
REMARK    6  A    between atoms: _11  and  _12
REMARK    7  A    between atoms: _14  and  _16
REMARK    8  A    between atoms: _16  and  _17
REMARK    9  A    between atoms: _16  and  _19
REMARK   10  A    between atoms: _19  and  _20
REMARK   11  A    between atoms: _20  and  _21
REMARK   12  A    between atoms: _26  and  _28
REMARK   13  A    between atoms: _28  and  _29
REMARK   14  A    between atoms: _31  and  _33
REMARK   15  A    between atoms: _33  and  _34
REMARK   16  A    between atoms: _33  and  _36
REMARK   17  A    between atoms: _36  and  _37
REMARK   18  A    between atoms: _42  and  _43
REMARK   19  A    between atoms: _45  and  _47
REMARK   20  A    between atoms: _47  and  _48
REMARK   21  A    between atoms: _47  and  _50
REMARK   22  A    between atoms: _50  and  _51
REMARK   23  A    between atoms: _54  and  _56
REMARK   24  A    between atoms: _56  and  _57
REMARK   25  A    between atoms: _56  and  _59
REMARK   26  A    between atoms: _62  and  _64
REMARK   27  A    between atoms: _64  and  _65
REMARK   28  A    between atoms: _64  and  _67
REMARK   29  A    between atoms: _67  and  _68
REMARK   30  A    between atoms: _71  and  _73
REMARK   31  A    between atoms: _73  and  _74
REMARK   32  A    between atoms: _73  and  _76
REMARK   33  A    between atoms: _76  and  _77
REMARK   34  A    between atoms: _80  and  _82
REMARK   35  A    between atoms: _82  and  _83
REMARK   36  A    between atoms: _85  and  _87
REMARK   37  A    between atoms: _87  and  _88
REMARK   38  A    between atoms: _87  and  _90
REMARK   39  A    between atoms: _90  and  _91
REMARK   40  A    between atoms: _93  and  _95
REMARK   41  A    between atoms: _95  and  _96
REMARK   42  A    between atoms: _95  and  _98
REMARK   43  A    between atoms: _98  and  _99
REMARK   44  A    between atoms: _101  and  _103
REMARK   45  A    between atoms: _103  and  _104
REMARK   46  A    between atoms: _103  and  _106
REMARK   47  A    between atoms: _106  and  _107
REMARK   48  A    between atoms: _112  and  _114
REMARK   49  A    between atoms: _114  and  _115
REMARK   50  A    between atoms: _114  and  _117
REMARK   51  A    between atoms: _117  and  _118
REMARK   52  A    between atoms: _124  and  _126
REMARK   53  A    between atoms: _126  and  _127
REMARK   54  A    between atoms: _126  and  _129
REMARK   55  A    between atoms: _133  and  _134
REMARK   56  A    between atoms: _139  and  _141
REMARK   57  A    between atoms: _141  and  _142
REMARK   58  A    between atoms: _141  and  _144
REMARK   59  A    between atoms: _144  and  _145
REMARK   60  A    between atoms: _150  and  _151
REMARK   61  A    between atoms: _153  and  _155
REMARK   62  A    between atoms: _155  and  _156
REMARK   63  A    between atoms: _155  and  _158
REMARK   64  A    between atoms: _158  and  _159
REMARK   65  A    between atoms: _162  and  _164
REMARK   66  A    between atoms: _164  and  _165
REMARK   67  A    between atoms: _164  and  _167
REMARK   68  A    between atoms: _167  and  _168
REMARK   69  A    between atoms: _168  and  _169
REMARK   70  A    between atoms: _174  and  _176
REMARK   71  A    between atoms: _176  and  _177
REMARK   72  A    between atoms: _179  and  _181
REMARK   73  A    between atoms: _181  and  _182
REMARK   74  A    between atoms: _181  and  _184
REMARK   75  A    between atoms: _184  and  _185
REMARK   76  A    between atoms: _185  and  _186
REMARK   77  A    between atoms: _186  and  _187
REMARK   78  A    between atoms: _187  and  _188
REMARK   79  A    between atoms: _192  and  _194
REMARK   80  A    between atoms: _194  and  _195
REMARK   81  A    between atoms: _194  and  _197
REMARK   82  A    between atoms: _197  and  _198
REMARK   83  A    between atoms: _208  and  _210
REMARK   84  A    between atoms: _210  and  _211
REMARK   85  A    between atoms: _210  and  _213
REMARK   86  A    between atoms: _213  and  _214
REMARK   87  A    between atoms: _217  and  _219
REMARK   88  A    between atoms: _219  and  _220
REMARK   89  A    between atoms: _219  and  _222
REMARK   90  A    between atoms: _222  and  _223
REMARK   91  A    between atoms: _223  and  _224
REMARK   92  A    between atoms: _224  and  _225
REMARK   93  A    between atoms: _225  and  _226
REMARK   94  A    between atoms: _230  and  _232
REMARK   95  A    between atoms: _232  and  _233
REMARK   96  A    between atoms: _232  and  _235
REMARK   97  A    between atoms: _235  and  _236
REMARK   98  A    between atoms: _242  and  _244
REMARK   99  A    between atoms: _244  and  _245
REMARK  100  A    between atoms: _244  and  _247
REMARK  101  A    between atoms: _247  and  _248
REMARK  102  A    between atoms: _254  and  _256
REMARK  103  A    between atoms: _256  and  _257
REMARK  104  A    between atoms: _256  and  _259
REMARK  105  A    between atoms: _259  and  _260
REMARK  106  A    between atoms: _263  and  _265
REMARK  107  A    between atoms: _265  and  _266
REMARK  108  A    between atoms: _265  and  _268
REMARK  109  A    between atoms: _268  and  _269
REMARK  110  A    between atoms: _274  and  _276
REMARK  111  A    between atoms: _276  and  _277
REMARK  112  A    between atoms: _276  and  _279
REMARK  113  A    between atoms: _279  and  _280
REMARK  114  A    between atoms: _282  and  _284
REMARK  115  A    between atoms: _284  and  _285
REMARK  116  A    between atoms: _284  and  _287
REMARK  117  A    between atoms: _287  and  _288
REMARK  118  A    between atoms: _298  and  _300
REMARK  119  A    between atoms: _300  and  _301
REMARK  120  A    between atoms: _303  and  _305
REMARK  121  A    between atoms: _305  and  _306
REMARK  122  A    between atoms: _305  and  _308
REMARK  123  A    between atoms: _308  and  _309
REMARK  124  A    between atoms: _312  and  _314
REMARK  125  A    between atoms: _314  and  _315
REMARK  126  A    between atoms: _314  and  _317
REMARK  127  A    between atoms: _317  and  _318
REMARK  128  A    between atoms: _321  and  _323
REMARK  129  A    between atoms: _323  and  _324
REMARK  130  A    between atoms: _326  and  _328
REMARK  131  A    between atoms: _328  and  _329
REMARK  132  A    between atoms: _328  and  _331
REMARK  133  A    between atoms: _331  and  _332
REMARK  134  A    between atoms: _335  and  _337
REMARK  135  A    between atoms: _337  and  _338
REMARK  136  A    between atoms: _341  and  _343
REMARK  137  A    between atoms: _343  and  _344
REMARK  138  A    between atoms: _343  and  _346
REMARK  139  A    between atoms: _346  and  _347
REMARK  140  A    between atoms: _350  and  _352
REMARK  141  A    between atoms: _352  and  _353
REMARK  142  A    between atoms: _352  and  _355
REMARK  143  A    between atoms: _355  and  _356
REMARK  144  A    between atoms: _361  and  _362
REMARK  145  A    between atoms: _364  and  _366
REMARK  146  A    between atoms: _366  and  _367
REMARK  147  A    between atoms: _366  and  _369
REMARK  148  A    between atoms: _369  and  _370
REMARK  149  A    between atoms: _375  and  _376
REMARK  150  A    between atoms: _378  and  _380
REMARK  151  A    between atoms: _380  and  _381
REMARK  152  A    between atoms: _380  and  _383
REMARK  153  A    between atoms: _383  and  _384
REMARK  154  A    between atoms: _387  and  _389
REMARK  155  A    between atoms: _389  and  _390
REMARK  156  A    between atoms: _389  and  _392
REMARK  157  A    between atoms: _392  and  _393
REMARK  158  A    between atoms: _393  and  _394
REMARK  159  A    between atoms: _394  and  _395
REMARK  160  A    between atoms: _395  and  _396
REMARK  161  A    between atoms: _400  and  _402
REMARK  162  A    between atoms: _402  and  _403
REMARK  163  A    between atoms: _402  and  _405
REMARK  164  A    between atoms: _405  and  _406
REMARK  165  A    between atoms: _409  and  _411
REMARK  166  A    between atoms: _411  and  _412
REMARK  167  A    between atoms: _411  and  _414
REMARK  168  A    between atoms: _417  and  _419
REMARK  169  A    between atoms: _419  and  _420
REMARK  170  A    between atoms: _419  and  _422
REMARK  171  A    between atoms: _422  and  _423
REMARK  172  A    between atoms: _426  and  _428
REMARK  173  A    between atoms: _428  and  _429
REMARK  174  A    between atoms: _428  and  _431
REMARK  175  A    between atoms: _431  and  _432
REMARK  176  A    between atoms: _434  and  _436
REMARK  177  A    between atoms: _436  and  _437
REMARK  178  A    between atoms: _439  and  _441
REMARK  179  A    between atoms: _441  and  _442
REMARK  180  A    between atoms: _441  and  _444
REMARK  181  A    between atoms: _444  and  _445
REMARK  182  A    between atoms: _448  and  _450
REMARK  183  A    between atoms: _450  and  _451
REMARK  184  A    between atoms: _450  and  _453
REMARK  185  A    between atoms: _453  and  _454
REMARK  186  A    between atoms: _457  and  _459
REMARK  187  A    between atoms: _459  and  _460
REMARK  188  A    between atoms: _459  and  _462
REMARK  189  A    between atoms: _462  and  _463
REMARK  190  A    between atoms: _468  and  _470
REMARK  191  A    between atoms: _470  and  _471
REMARK  192  A    between atoms: _470  and  _473
REMARK  193  A    between atoms: _473  and  _474
REMARK  194  A    between atoms: _474  and  _475
REMARK  195  A    between atoms: _475  and  _476
REMARK  196  A    between atoms: _485  and  _487
REMARK  197  A    between atoms: _487  and  _488
REMARK  198  A    between atoms: _487  and  _490
REMARK  199  A    between atoms: _490  and  _491
REMARK  200  A    between atoms: _493  and  _495
REMARK  201  A    between atoms: _495  and  _496
REMARK  202  A    between atoms: _495  and  _498
REMARK  203  A    between atoms: _498  and  _499
REMARK  204  A    between atoms: _499  and  _500
REMARK  205  A    between atoms: _505  and  _507
REMARK  206  A    between atoms: _507  and  _508
REMARK  207  A    between atoms: _507  and  _510
REMARK  208  A    between atoms: _510  and  _511
REMARK  209  A    between atoms: _513  and  _515
REMARK  210  A    between atoms: _515  and  _516
REMARK  211  A    between atoms: _515  and  _518
REMARK  212  A    between atoms: _518  and  _519
REMARK  213  A    between atoms: _521  and  _523
REMARK  214  A    between atoms: _523  and  _524
REMARK  215  A    between atoms: _523  and  _526
REMARK  216  A    between atoms: _526  and  _527
REMARK  217  A    between atoms: _530  and  _532
REMARK  218  A    between atoms: _532  and  _533
REMARK  219  A    between atoms: _535  and  _537
REMARK  220  A    between atoms: _537  and  _538
REMARK  221  A    between atoms: _537  and  _540
REMARK  222  A    between atoms: _540  and  _541
REMARK  223  A    between atoms: _544  and  _546
REMARK  224  A    between atoms: _546  and  _547
REMARK  225  A    between atoms: _546  and  _549
REMARK  226  A    between atoms: _552  and  _554
REMARK  227  A    between atoms: _554  and  _555
REMARK  228  A    between atoms: _554  and  _557
REMARK  229  A    between atoms: _557  and  _558
REMARK  230  A    between atoms: _558  and  _559
REMARK                            x       y       z     vdW  Elec       q    Type
REMARK                         _______ _______ _______ _____ _____    ______ ____
ROOT
ATOM      1  O   HOH     1      -2.236   9.305  27.781  0.00  0.00    +0.000 OA
ENDROOT
TORSDOF 0
REMARK  Name = ../refined-set-2016/4fsl/4fsl_pocket.pdb
REMARK  230 active torsions:
REMARK  status: ('A' for Active; 'I' for Inactive)
REMARK    1  A    between atoms: _1  and  _3
REMARK    2  A    between atoms: _3  and  _4
REMARK    3  A    between atoms: _3  and  _6
REMARK    4  A    between atoms: _6  and  _7
REMARK    5  A    between atoms: _9  and  _11
REMARK    6  A    between atoms: _11  and  _12
REMARK    7  A    between atoms: _14  and  _16
REMARK    8  A    between atoms: _16  and  _17
REMARK    9  A    between atoms: _16  and  _19
REMARK   10  A    between atoms: _19  and  _20
REMARK   11  A    between atoms: _20  and  _21
REMARK   12  A    between atoms: _26  and  _28
REMARK   13  A    between atoms: _28  and  _29
REMARK   14  A    between atoms: _31  and  _33
REMARK   15  A    between atoms: _33  and  _34
REMARK   16  A    between atoms: _33  and  _36
REMARK   17  A    between atoms: _36  and  _37
REMARK   18  A    between atoms: _42  and  _43
REMARK   19  A    between atoms: _45  and  _47
REMARK   20  A    between atoms: _47  and  _48
REMARK   21  A    between atoms: _47  and  _50
REMARK   22  A    between atoms: _50  and  _51
REMARK   23  A    between atoms: _54  and  _56
REMARK   24  A    between atoms: _56  and  _57
REMARK   25  A    between atoms: _56  and  _59
REMARK   26  A    between atoms: _62  and  _64
REMARK   27  A    between atoms: _64  and  _65
REMARK   28  A    between atoms: _64  and  _67
REMARK   29  A    between atoms: _67  and  _68
REMARK   30  A    between atoms: _71  and  _73
REMARK   31  A    between atoms: _73  and  _74
REMARK   32  A    between atoms: _73  and  _76
REMARK   33  A    between atoms: _76  and  _77
REMARK   34  A    between atoms: _80  and  _82
REMARK   35  A    between atoms: _82  and  _83
REMARK   36  A    between atoms: _85  and  _87
REMARK   37  A    between atoms: _87  and  _88
REMARK   38  A    between atoms: _87  and  _90
REMARK   39  A    between atoms: _90  and  _91
REMARK   40  A    between atoms: _93  and  _95
REMARK   41  A    between atoms: _95  and  _96
REMARK   42  A    between atoms: _95  and  _98
REMARK   43  A    between atoms: _98  and  _99
REMARK   44  A    between atoms: _101  and  _103
REMARK   45  A    between atoms: _103  and  _104
REMARK   46  A    between atoms: _103  and  _106
REMARK   47  A    between atoms: _106  and  _107
REMARK   48  A    between atoms: _112  and  _114
REMARK   49  A    between atoms: _114  and  _115
REMARK   50  A    between atoms: _114  and  _117
REMARK   51  A    between atoms: _117  and  _118
REMARK   52  A    between atoms: _124  and  _126
REMARK   53  A    between atoms: _126  and  _127
REMARK   54  A    between atoms: _126  and  _129
REMARK   55  A    between atoms: _133  and  _134
REMARK   56  A    between atoms: _139  and  _141
REMARK   57  A    between atoms: _141  and  _142
REMARK   58  A    between atoms: _141  and  _144
REMARK   59  A    between atoms: _144  and  _145
REMARK   60  A    between atoms: _150  and  _151
REMARK   61  A    between atoms: _153  and  _155
REMARK   62  A    between atoms: _155  and  _156
REMARK   63  A    between atoms: _155  and  _158
REMARK   64  A    between atoms: _158  and  _159
REMARK   65  A    between atoms: _162  and  _164
REMARK   66  A    between atoms: _164  and  _165
REMARK   67  A    between atoms: _164  and  _167
REMARK   68  A    between atoms: _167  and  _168
REMARK   69  A    between atoms: _168  and  _169
REMARK   70  A    between atoms: _174  and  _176
REMARK   71  A    between atoms: _176  and  _177
REMARK   72  A    between atoms: _179  and  _181
REMARK   73  A    between atoms: _181  and  _182
REMARK   74  A    between atoms: _181  and  _184
REMARK   75  A    between atoms: _184  and  _185
REMARK   76  A    between atoms: _185  and  _186
REMARK   77  A    between atoms: _186  and  _187
REMARK   78  A    between atoms: _187  and  _188
REMARK   79  A    between atoms: _192  and  _194
REMARK   80  A    between atoms: _194  and  _195
REMARK   81  A    between atoms: _194  and  _197
REMARK   82  A    between atoms: _197  and  _198
REMARK   83  A    between atoms: _208  and  _210
REMARK   84  A    between atoms: _210  and  _211
REMARK   85  A    between atoms: _210  and  _213
REMARK   86  A    between atoms: _213  and  _214
REMARK   87  A    between atoms: _217  and  _219
REMARK   88  A    between atoms: _219  and  _220
REMARK   89  A    between atoms: _219  and  _222
REMARK   90  A    between atoms: _222  and  _223
REMARK   91  A    between atoms: _223  and  _224
REMARK   92  A    between atoms: _224  and  _225
REMARK   93  A    between atoms: _225  and  _226
REMARK   94  A    between atoms: _230  and  _232
REMARK   95  A    between atoms: _232  and  _233
REMARK   96  A    between atoms: _232  and  _235
REMARK   97  A    between atoms: _235  and  _236
REMARK   98  A    between atoms: _242  and  _244
REMARK   99  A    between atoms: _244  and  _245
REMARK  100  A    between atoms: _244  and  _247
REMARK  101  A    between atoms: _247  and  _248
REMARK  102  A    between atoms: _254  and  _256
REMARK  103  A    between atoms: _256  and  _257
REMARK  104  A    between atoms: _256  and  _259
REMARK  105  A    between atoms: _259  and  _260
REMARK  106  A    between atoms: _263  and  _265
REMARK  107  A    between atoms: _265  and  _266
REMARK  108  A    between atoms: _265  and  _268
REMARK  109  A    between atoms: _268  and  _269
REMARK  110  A    between atoms: _274  and  _276
REMARK  111  A    between atoms: _276  and  _277
REMARK  112  A    between atoms: _276  and  _279
REMARK  113  A    between atoms: _279  and  _280
REMARK  114  A    between atoms: _282  and  _284
REMARK  115  A    between atoms: _284  and  _285
REMARK  116  A    between atoms: _284  and  _287
REMARK  117  A    between atoms: _287  and  _288
REMARK  118  A    between atoms: _298  and  _300
REMARK  119  A    between atoms: _300  and  _301
REMARK  120  A    between atoms: _303  and  _305
REMARK  121  A    between atoms: _305  and  _306
REMARK  122  A    between atoms: _305  and  _308
REMARK  123  A    between atoms: _308  and  _309
REMARK  124  A    between atoms: _312  and  _314
REMARK  125  A    between atoms: _314  and  _315
REMARK  126  A    between atoms: _314  and  _317
REMARK  127  A    between atoms: _317  and  _318
REMARK  128  A    between atoms: _321  and  _323
REMARK  129  A    between atoms: _323  and  _324
REMARK  130  A    between atoms: _326  and  _328
REMARK  131  A    between atoms: _328  and  _329
REMARK  132  A    between atoms: _328  and  _331
REMARK  133  A    between atoms: _331  and  _332
REMARK  134  A    between atoms: _335  and  _337
REMARK  135  A    between atoms: _337  and  _338
REMARK  136  A    between atoms: _341  and  _343
REMARK  137  A    between atoms: _343  and  _344
REMARK  138  A    between atoms: _343  and  _346
REMARK  139  A    between atoms: _346  and  _347
REMARK  140  A    between atoms: _350  and  _352
REMARK  141  A    between atoms: _352  and  _353
REMARK  142  A    between atoms: _352  and  _355
REMARK  143  A    between atoms: _355  and  _356
REMARK  144  A    between atoms: _361  and  _362
REMARK  145  A    between atoms: _364  and  _366
REMARK  146  A    between atoms: _366  and  _367
REMARK  147  A    between atoms: _366  and  _369
REMARK  148  A    between atoms: _369  and  _370
REMARK  149  A    between atoms: _375  and  _376
REMARK  150  A    between atoms: _378  and  _380
REMARK  151  A    between atoms: _380  and  _381
REMARK  152  A    between atoms: _380  and  _383
REMARK  153  A    between atoms: _383  and  _384
REMARK  154  A    between atoms: _387  and  _389
REMARK  155  A    between atoms: _389  and  _390
REMARK  156  A    between atoms: _389  and  _392
REMARK  157  A    between atoms: _392  and  _393
REMARK  158  A    between atoms: _393  and  _394
REMARK  159  A    between atoms: _394  and  _395
REMARK  160  A    between atoms: _395  and  _396
REMARK  161  A    between atoms: _400  and  _402
REMARK  162  A    between atoms: _402  and  _403
REMARK  163  A    between atoms: _402  and  _405
REMARK  164  A    between atoms: _405  and  _406
REMARK  165  A    between atoms: _409  and  _411
REMARK  166  A    between atoms: _411  and  _412
REMARK  167  A    between atoms: _411  and  _414
REMARK  168  A    between atoms: _417  and  _419
REMARK  169  A    between atoms: _419  and  _420
REMARK  170  A    between atoms: _419  and  _422
REMARK  171  A    between atoms: _422  and  _423
REMARK  172  A    between atoms: _426  and  _428
REMARK  173  A    between atoms: _428  and  _429
REMARK  174  A    between atoms: _428  and  _431
REMARK  175  A    between atoms: _431  and  _432
REMARK  176  A    between atoms: _434  and  _436
REMARK  177  A    between atoms: _436  and  _437
REMARK  178  A    between atoms: _439  and  _441
REMARK  179  A    between atoms: _441  and  _442
REMARK  180  A    between atoms: _441  and  _444
REMARK  181  A    between atoms: _444  and  _445
REMARK  182  A    between atoms: _448  and  _450
REMARK  183  A    between atoms: _450  and  _451
REMARK  184  A    between atoms: _450  and  _453
REMARK  185  A    between atoms: _453  and  _454
REMARK  186  A    between atoms: _457  and  _459
REMARK  187  A    between atoms: _459  and  _460
REMARK  188  A    between atoms: _459  and  _462
REMARK  189  A    between atoms: _462  and  _463
REMARK  190  A    between atoms: _468  and  _470
REMARK  191  A    between atoms: _470  and  _471
REMARK  192  A    between atoms: _470  and  _473
REMARK  193  A    between atoms: _473  and  _474
REMARK  194  A    between atoms: _474  and  _475
REMARK  195  A    between atoms: _475  and  _476
REMARK  196  A    between atoms: _485  and  _487
REMARK  197  A    between atoms: _487  and  _488
REMARK  198  A    between atoms: _487  and  _490
REMARK  199  A    between atoms: _490  and  _491
REMARK  200  A    between atoms: _493  and  _495
REMARK  201  A    between atoms: _495  and  _496
REMARK  202  A    between atoms: _495  and  _498
REMARK  203  A    between atoms: _498  and  _499
REMARK  204  A    between atoms: _499  and  _500
REMARK  205  A    between atoms: _505  and  _507
REMARK  206  A    between atoms: _507  and  _508
REMARK  207  A    between atoms: _507  and  _510
REMARK  208  A    between atoms: _510  and  _511
REMARK  209  A    between atoms: _513  and  _515
REMARK  210  A    between atoms: _515  and  _516
REMARK  211  A    between atoms: _515  and  _518
REMARK  212  A    between atoms: _518  and  _519
REMARK  213  A    between atoms: _521  and  _523
REMARK  214  A    between atoms: _523  and  _524
REMARK  215  A    between atoms: _523  and  _526
REMARK  216  A    between atoms: _526  and  _527
REMARK  217  A    between atoms: _530  and  _532
REMARK  218  A    between atoms: _532  and  _533
REMARK  219  A    between atoms: _535  and  _537
REMARK  220  A    between atoms: _537  and  _538
REMARK  221  A    between atoms: _537  and  _540
REMARK  222  A    between atoms: _540  and  _541
REMARK  223  A    between atoms: _544  and  _546
REMARK  224  A    between atoms: _546  and  _547
REMARK  225  A    between atoms: _546  and  _549
REMARK  226  A    between atoms: _552  and  _554
REMARK  227  A    between atoms: _554  and  _555
REMARK  228  A    between atoms: _554  and  _557
REMARK  229  A    between atoms: _557  and  _558
REMARK  230  A    between atoms: _558  and  _559
REMARK                            x       y       z     vdW  Elec       q    Type
REMARK                         _______ _______ _______ _____ _____    ______ ____
ROOT
ATOM      1  O   HOH     1     -10.039  15.698  35.866  0.00  0.00    +0.000 OA
ENDROOT
TORSDOF 0
REMARK  Name = ../refined-set-2016/4fsl/4fsl_pocket.pdb
REMARK  230 active torsions:
REMARK  status: ('A' for Active; 'I' for Inactive)
REMARK    1  A    between atoms: _1  and  _3
REMARK    2  A    between atoms: _3  and  _4
REMARK    3  A    between atoms: _3  and  _6
REMARK    4  A    between atoms: _6  and  _7
REMARK    5  A    between atoms: _9  and  _11
REMARK    6  A    between atoms: _11  and  _12
REMARK    7  A    between atoms: _14  and  _16
REMARK    8  A    between atoms: _16  and  _17
REMARK    9  A    between atoms: _16  and  _19
REMARK   10  A    between atoms: _19  and  _20
REMARK   11  A    between atoms: _20  and  _21
REMARK   12  A    between atoms: _26  and  _28
REMARK   13  A    between atoms: _28  and  _29
REMARK   14  A    between atoms: _31  and  _33
REMARK   15  A    between atoms: _33  and  _34
REMARK   16  A    between atoms: _33  and  _36
REMARK   17  A    between atoms: _36  and  _37
REMARK   18  A    between atoms: _42  and  _43
REMARK   19  A    between atoms: _45  and  _47
REMARK   20  A    between atoms: _47  and  _48
REMARK   21  A    between atoms: _47  and  _50
REMARK   22  A    between atoms: _50  and  _51
REMARK   23  A    between atoms: _54  and  _56
REMARK   24  A    between atoms: _56  and  _57
REMARK   25  A    between atoms: _56  and  _59
REMARK   26  A    between atoms: _62  and  _64
REMARK   27  A    between atoms: _64  and  _65
REMARK   28  A    between atoms: _64  and  _67
REMARK   29  A    between atoms: _67  and  _68
REMARK   30  A    between atoms: _71  and  _73
REMARK   31  A    between atoms: _73  and  _74
REMARK   32  A    between atoms: _73  and  _76
REMARK   33  A    between atoms: _76  and  _77
REMARK   34  A    between atoms: _80  and  _82
REMARK   35  A    between atoms: _82  and  _83
REMARK   36  A    between atoms: _85  and  _87
REMARK   37  A    between atoms: _87  and  _88
REMARK   38  A    between atoms: _87  and  _90
REMARK   39  A    between atoms: _90  and  _91
REMARK   40  A    between atoms: _93  and  _95
REMARK   41  A    between atoms: _95  and  _96
REMARK   42  A    between atoms: _95  and  _98
REMARK   43  A    between atoms: _98  and  _99
REMARK   44  A    between atoms: _101  and  _103
REMARK   45  A    between atoms: _103  and  _104
REMARK   46  A    between atoms: _103  and  _106
REMARK   47  A    between atoms: _106  and  _107
REMARK   48  A    between atoms: _112  and  _114
REMARK   49  A    between atoms: _114  and  _115
REMARK   50  A    between atoms: _114  and  _117
REMARK   51  A    between atoms: _117  and  _118
REMARK   52  A    between atoms: _124  and  _126
REMARK   53  A    between atoms: _126  and  _127
REMARK   54  A    between atoms: _126  and  _129
REMARK   55  A    between atoms: _133  and  _134
REMARK   56  A    between atoms: _139  and  _141
REMARK   57  A    between atoms: _141  and  _142
REMARK   58  A    between atoms: _141  and  _144
REMARK   59  A    between atoms: _144  and  _145
REMARK   60  A    between atoms: _150  and  _151
REMARK   61  A    between atoms: _153  and  _155
REMARK   62  A    between atoms: _155  and  _156
REMARK   63  A    between atoms: _155  and  _158
REMARK   64  A    between atoms: _158  and  _159
REMARK   65  A    between atoms: _162  and  _164
REMARK   66  A    between atoms: _164  and  _165
REMARK   67  A    between atoms: _164  and  _167
REMARK   68  A    between atoms: _167  and  _168
REMARK   69  A    between atoms: _168  and  _169
REMARK   70  A    between atoms: _174  and  _176
REMARK   71  A    between atoms: _176  and  _177
REMARK   72  A    between atoms: _179  and  _181
REMARK   73  A    between atoms: _181  and  _182
REMARK   74  A    between atoms: _181  and  _184
REMARK   75  A    between atoms: _184  and  _185
REMARK   76  A    between atoms: _185  and  _186
REMARK   77  A    between atoms: _186  and  _187
REMARK   78  A    between atoms: _187  and  _188
REMARK   79  A    between atoms: _192  and  _194
REMARK   80  A    between atoms: _194  and  _195
REMARK   81  A    between atoms: _194  and  _197
REMARK   82  A    between atoms: _197  and  _198
REMARK   83  A    between atoms: _208  and  _210
REMARK   84  A    between atoms: _210  and  _211
REMARK   85  A    between atoms: _210  and  _213
REMARK   86  A    between atoms: _213  and  _214
REMARK   87  A    between atoms: _217  and  _219
REMARK   88  A    between atoms: _219  and  _220
REMARK   89  A    between atoms: _219  and  _222
REMARK   90  A    between atoms: _222  and  _223
REMARK   91  A    between atoms: _223  and  _224
REMARK   92  A    between atoms: _224  and  _225
REMARK   93  A    between atoms: _225  and  _226
REMARK   94  A    between atoms: _230  and  _232
REMARK   95  A    between atoms: _232  and  _233
REMARK   96  A    between atoms: _232  and  _235
REMARK   97  A    between atoms: _235  and  _236
REMARK   98  A    between atoms: _242  and  _244
REMARK   99  A    between atoms: _244  and  _245
REMARK  100  A    between atoms: _244  and  _247
REMARK  101  A    between atoms: _247  and  _248
REMARK  102  A    between atoms: _254  and  _256
REMARK  103  A    between atoms: _256  and  _257
REMARK  104  A    between atoms: _256  and  _259
REMARK  105  A    between atoms: _259  and  _260
REMARK  106  A    between atoms: _263  and  _265
REMARK  107  A    between atoms: _265  and  _266
REMARK  108  A    between atoms: _265  and  _268
REMARK  109  A    between atoms: _268  and  _269
REMARK  110  A    between atoms: _274  and  _276
REMARK  111  A    between atoms: _276  and  _277
REMARK  112  A    between atoms: _276  and  _279
REMARK  113  A    between atoms: _279  and  _280
REMARK  114  A    between atoms: _282  and  _284
REMARK  115  A    between atoms: _284  and  _285
REMARK  116  A    between atoms: _284  and  _287
REMARK  117  A    between atoms: _287  and  _288
REMARK  118  A    between atoms: _298  and  _300
REMARK  119  A    between atoms: _300  and  _301
REMARK  120  A    between atoms: _303  and  _305
REMARK  121  A    between atoms: _305  and  _306
REMARK  122  A    between atoms: _305  and  _308
REMARK  123  A    between atoms: _308  and  _309
REMARK  124  A    between atoms: _312  and  _314
REMARK  125  A    between atoms: _314  and  _315
REMARK  126  A    between atoms: _314  and  _317
REMARK  127  A    between atoms: _317  and  _318
REMARK  128  A    between atoms: _321  and  _323
REMARK  129  A    between atoms: _323  and  _324
REMARK  130  A    between atoms: _326  and  _328
REMARK  131  A    between atoms: _328  and  _329
REMARK  132  A    between atoms: _328  and  _331
REMARK  133  A    between atoms: _331  and  _332
REMARK  134  A    between atoms: _335  and  _337
REMARK  135  A    between atoms: _337  and  _338
REMARK  136  A    between atoms: _341  and  _343
REMARK  137  A    between atoms: _343  and  _344
REMARK  138  A    between atoms: _343  and  _346
REMARK  139  A    between atoms: _346  and  _347
REMARK  140  A    between atoms: _350  and  _352
REMARK  141  A    between atoms: _352  and  _353
REMARK  142  A    between atoms: _352  and  _355
REMARK  143  A    between atoms: _355  and  _356
REMARK  144  A    between atoms: _361  and  _362
REMARK  145  A    between atoms: _364  and  _366
REMARK  146  A    between atoms: _366  and  _367
REMARK  147  A    between atoms: _366  and  _369
REMARK  148  A    between atoms: _369  and  _370
REMARK  149  A    between atoms: _375  and  _376
REMARK  150  A    between atoms: _378  and  _380
REMARK  151  A    between atoms: _380  and  _381
REMARK  152  A    between atoms: _380  and  _383
REMARK  153  A    between atoms: _383  and  _384
REMARK  154  A    between atoms: _387  and  _389
REMARK  155  A    between atoms: _389  and  _390
REMARK  156  A    between atoms: _389  and  _392
REMARK  157  A    between atoms: _392  and  _393
REMARK  158  A    between atoms: _393  and  _394
REMARK  159  A    between atoms: _394  and  _395
REMARK  160  A    between atoms: _395  and  _396
REMARK  161  A    between atoms: _400  and  _402
REMARK  162  A    between atoms: _402  and  _403
REMARK  163  A    between atoms: _402  and  _405
REMARK  164  A    between atoms: _405  and  _406
REMARK  165  A    between atoms: _409  and  _411
REMARK  166  A    between atoms: _411  and  _412
REMARK  167  A    between atoms: _411  and  _414
REMARK  168  A    between atoms: _417  and  _419
REMARK  169  A    between atoms: _419  and  _420
REMARK  170  A    between atoms: _419  and  _422
REMARK  171  A    between atoms: _422  and  _423
REMARK  172  A    between atoms: _426  and  _428
REMARK  173  A    between atoms: _428  and  _429
REMARK  174  A    between atoms: _428  and  _431
REMARK  175  A    between atoms: _431  and  _432
REMARK  176  A    between atoms: _434  and  _436
REMARK  177  A    between atoms: _436  and  _437
REMARK  178  A    between atoms: _439  and  _441
REMARK  179  A    between atoms: _441  and  _442
REMARK  180  A    between atoms: _441  and  _444
REMARK  181  A    between atoms: _444  and  _445
REMARK  182  A    between atoms: _448  and  _450
REMARK  183  A    between atoms: _450  and  _451
REMARK  184  A    between atoms: _450  and  _453
REMARK  185  A    between atoms: _453  and  _454
REMARK  186  A    between atoms: _457  and  _459
REMARK  187  A    between atoms: _459  and  _460
REMARK  188  A    between atoms: _459  and  _462
REMARK  189  A    between atoms: _462  and  _463
REMARK  190  A    between atoms: _468  and  _470
REMARK  191  A    between atoms: _470  and  _471
REMARK  192  A    between atoms: _470  and  _473
REMARK  193  A    between atoms: _473  and  _474
REMARK  194  A    between atoms: _474  and  _475
REMARK  195  A    between atoms: _475  and  _476
REMARK  196  A    between atoms: _485  and  _487
REMARK  197  A    between atoms: _487  and  _488
REMARK  198  A    between atoms: _487  and  _490
REMARK  199  A    between atoms: _490  and  _491
REMARK  200  A    between atoms: _493  and  _495
REMARK  201  A    between atoms: _495  and  _496
REMARK  202  A    between atoms: _495  and  _498
REMARK  203  A    between atoms: _498  and  _499
REMARK  204  A    between atoms: _499  and  _500
REMARK  205  A    between atoms: _505  and  _507
REMARK  206  A    between atoms: _507  and  _508
REMARK  207  A    between atoms: _507  and  _510
REMARK  208  A    between atoms: _510  and  _511
REMARK  209  A    between atoms: _513  and  _515
REMARK  210  A    between atoms: _515  and  _516
REMARK  211  A    between atoms: _515  and  _518
REMARK  212  A    between atoms: _518  and  _519
REMARK  213  A    between atoms: _521  and  _523
REMARK  214  A    between atoms: _523  and  _524
REMARK  215  A    between atoms: _523  and  _526
REMARK  216  A    between atoms: _526  and  _527
REMARK  217  A    between atoms: _530  and  _532
REMARK  218  A    between atoms: _532  and  _533
REMARK  219  A    between atoms: _535  and  _537
REMARK  220  A    between atoms: _537  and  _538
REMARK  221  A    between atoms: _537  and  _540
REMARK  222  A    between atoms: _540  and  _541
REMARK  223  A    between atoms: _544  and  _546
REMARK  224  A    between atoms: _546  and  _547
REMARK  225  A    between atoms: _546  and  _549
REMARK  226  A    between atoms: _552  and  _554
REMARK  227  A    between atoms: _554  and  _555
REMARK  228  A    between atoms: _554  and  _557
REMARK  229  A    between atoms: _557  and  _558
REMARK  230  A    between atoms: _558  and  _559
REMARK                            x       y       z     vdW  Elec       q    Type
REMARK                         _______ _______ _______ _____ _____    ______ ____
ROOT
ATOM      1  O   HOH     1       5.659  14.930  28.086  0.00  0.00    +0.000 OA
ENDROOT
TORSDOF 0
REMARK  Name = ../refined-set-2016/4fsl/4fsl_pocket.pdb
REMARK  230 active torsions:
REMARK  status: ('A' for Active; 'I' for Inactive)
REMARK    1  A    between atoms: _1  and  _3
REMARK    2  A    between atoms: _3  and  _4
REMARK    3  A    between atoms: _3  and  _6
REMARK    4  A    between atoms: _6  and  _7
REMARK    5  A    between atoms: _9  and  _11
REMARK    6  A    between atoms: _11  and  _12
REMARK    7  A    between atoms: _14  and  _16
REMARK    8  A    between atoms: _16  and  _17
REMARK    9  A    between atoms: _16  and  _19
REMARK   10  A    between atoms: _19  and  _20
REMARK   11  A    between atoms: _20  and  _21
REMARK   12  A    between atoms: _26  and  _28
REMARK   13  A    between atoms: _28  and  _29
REMARK   14  A    between atoms: _31  and  _33
REMARK   15  A    between atoms: _33  and  _34
REMARK   16  A    between atoms: _33  and  _36
REMARK   17  A    between atoms: _36  and  _37
REMARK   18  A    between atoms: _42  and  _43
REMARK   19  A    between atoms: _45  and  _47
REMARK   20  A    between atoms: _47  and  _48
REMARK   21  A    between atoms: _47  and  _50
REMARK   22  A    between atoms: _50  and  _51
REMARK   23  A    between atoms: _54  and  _56
REMARK   24  A    between atoms: _56  and  _57
REMARK   25  A    between atoms: _56  and  _59
REMARK   26  A    between atoms: _62  and  _64
REMARK   27  A    between atoms: _64  and  _65
REMARK   28  A    between atoms: _64  and  _67
REMARK   29  A    between atoms: _67  and  _68
REMARK   30  A    between atoms: _71  and  _73
REMARK   31  A    between atoms: _73  and  _74
REMARK   32  A    between atoms: _73  and  _76
REMARK   33  A    between atoms: _76  and  _77
REMARK   34  A    between atoms: _80  and  _82
REMARK   35  A    between atoms: _82  and  _83
REMARK   36  A    between atoms: _85  and  _87
REMARK   37  A    between atoms: _87  and  _88
REMARK   38  A    between atoms: _87  and  _90
REMARK   39  A    between atoms: _90  and  _91
REMARK   40  A    between atoms: _93  and  _95
REMARK   41  A    between atoms: _95  and  _96
REMARK   42  A    between atoms: _95  and  _98
REMARK   43  A    between atoms: _98  and  _99
REMARK   44  A    between atoms: _101  and  _103
REMARK   45  A    between atoms: _103  and  _104
REMARK   46  A    between atoms: _103  and  _106
REMARK   47  A    between atoms: _106  and  _107
REMARK   48  A    between atoms: _112  and  _114
REMARK   49  A    between atoms: _114  and  _115
REMARK   50  A    between atoms: _114  and  _117
REMARK   51  A    between atoms: _117  and  _118
REMARK   52  A    between atoms: _124  and  _126
REMARK   53  A    between atoms: _126  and  _127
REMARK   54  A    between atoms: _126  and  _129
REMARK   55  A    between atoms: _133  and  _134
REMARK   56  A    between atoms: _139  and  _141
REMARK   57  A    between atoms: _141  and  _142
REMARK   58  A    between atoms: _141  and  _144
REMARK   59  A    between atoms: _144  and  _145
REMARK   60  A    between atoms: _150  and  _151
REMARK   61  A    between atoms: _153  and  _155
REMARK   62  A    between atoms: _155  and  _156
REMARK   63  A    between atoms: _155  and  _158
REMARK   64  A    between atoms: _158  and  _159
REMARK   65  A    between atoms: _162  and  _164
REMARK   66  A    between atoms: _164  and  _165
REMARK   67  A    between atoms: _164  and  _167
REMARK   68  A    between atoms: _167  and  _168
REMARK   69  A    between atoms: _168  and  _169
REMARK   70  A    between atoms: _174  and  _176
REMARK   71  A    between atoms: _176  and  _177
REMARK   72  A    between atoms: _179  and  _181
REMARK   73  A    between atoms: _181  and  _182
REMARK   74  A    between atoms: _181  and  _184
REMARK   75  A    between atoms: _184  and  _185
REMARK   76  A    between atoms: _185  and  _186
REMARK   77  A    between atoms: _186  and  _187
REMARK   78  A    between atoms: _187  and  _188
REMARK   79  A    between atoms: _192  and  _194
REMARK   80  A    between atoms: _194  and  _195
REMARK   81  A    between atoms: _194  and  _197
REMARK   82  A    between atoms: _197  and  _198
REMARK   83  A    between atoms: _208  and  _210
REMARK   84  A    between atoms: _210  and  _211
REMARK   85  A    between atoms: _210  and  _213
REMARK   86  A    between atoms: _213  and  _214
REMARK   87  A    between atoms: _217  and  _219
REMARK   88  A    between atoms: _219  and  _220
REMARK   89  A    between atoms: _219  and  _222
REMARK   90  A    between atoms: _222  and  _223
REMARK   91  A    between atoms: _223  and  _224
REMARK   92  A    between atoms: _224  and  _225
REMARK   93  A    between atoms: _225  and  _226
REMARK   94  A    between atoms: _230  and  _232
REMARK   95  A    between atoms: _232  and  _233
REMARK   96  A    between atoms: _232  and  _235
REMARK   97  A    between atoms: _235  and  _236
REMARK   98  A    between atoms: _242  and  _244
REMARK   99  A    between atoms: _244  and  _245
REMARK  100  A    between atoms: _244  and  _247
REMARK  101  A    between atoms: _247  and  _248
REMARK  102  A    between atoms: _254  and  _256
REMARK  103  A    between atoms: _256  and  _257
REMARK  104  A    between atoms: _256  and  _259
REMARK  105  A    between atoms: _259  and  _260
REMARK  106  A    between atoms: _263  and  _265
REMARK  107  A    between atoms: _265  and  _266
REMARK  108  A    between atoms: _265  and  _268
REMARK  109  A    between atoms: _268  and  _269
REMARK  110  A    between atoms: _274  and  _276
REMARK  111  A    between atoms: _276  and  _277
REMARK  112  A    between atoms: _276  and  _279
REMARK  113  A    between atoms: _279  and  _280
REMARK  114  A    between atoms: _282  and  _284
REMARK  115  A    between atoms: _284  and  _285
REMARK  116  A    between atoms: _284  and  _287
REMARK  117  A    between atoms: _287  and  _288
REMARK  118  A    between atoms: _298  and  _300
REMARK  119  A    between atoms: _300  and  _301
REMARK  120  A    between atoms: _303  and  _305
REMARK  121  A    between atoms: _305  and  _306
REMARK  122  A    between atoms: _305  and  _308
REMARK  123  A    between atoms: _308  and  _309
REMARK  124  A    between atoms: _312  and  _314
REMARK  125  A    between atoms: _314  and  _315
REMARK  126  A    between atoms: _314  and  _317
REMARK  127  A    between atoms: _317  and  _318
REMARK  128  A    between atoms: _321  and  _323
REMARK  129  A    between atoms: _323  and  _324
REMARK  130  A    between atoms: _326  and  _328
REMARK  131  A    between atoms: _328  and  _329
REMARK  132  A    between atoms: _328  and  _331
REMARK  133  A    between atoms: _331  and  _332
REMARK  134  A    between atoms: _335  and  _337
REMARK  135  A    between atoms: _337  and  _338
REMARK  136  A    between atoms: _341  and  _343
REMARK  137  A    between atoms: _343  and  _344
REMARK  138  A    between atoms: _343  and  _346
REMARK  139  A    between atoms: _346  and  _347
REMARK  140  A    between atoms: _350  and  _352
REMARK  141  A    between atoms: _352  and  _353
REMARK  142  A    between atoms: _352  and  _355
REMARK  143  A    between atoms: _355  and  _356
REMARK  144  A    between atoms: _361  and  _362
REMARK  145  A    between atoms: _364  and  _366
REMARK  146  A    between atoms: _366  and  _367
REMARK  147  A    between atoms: _366  and  _369
REMARK  148  A    between atoms: _369  and  _370
REMARK  149  A    between atoms: _375  and  _376
REMARK  150  A    between atoms: _378  and  _380
REMARK  151  A    between atoms: _380  and  _381
REMARK  152  A    between atoms: _380  and  _383
REMARK  153  A    between atoms: _383  and  _384
REMARK  154  A    between atoms: _387  and  _389
REMARK  155  A    between atoms: _389  and  _390
REMARK  156  A    between atoms: _389  and  _392
REMARK  157  A    between atoms: _392  and  _393
REMARK  158  A    between atoms: _393  and  _394
REMARK  159  A    between atoms: _394  and  _395
REMARK  160  A    between atoms: _395  and  _396
REMARK  161  A    between atoms: _400  and  _402
REMARK  162  A    between atoms: _402  and  _403
REMARK  163  A    between atoms: _402  and  _405
REMARK  164  A    between atoms: _405  and  _406
REMARK  165  A    between atoms: _409  and  _411
REMARK  166  A    between atoms: _411  and  _412
REMARK  167  A    between atoms: _411  and  _414
REMARK  168  A    between atoms: _417  and  _419
REMARK  169  A    between atoms: _419  and  _420
REMARK  170  A    between atoms: _419  and  _422
REMARK  171  A    between atoms: _422  and  _423
REMARK  172  A    between atoms: _426  and  _428
REMARK  173  A    between atoms: _428  and  _429
REMARK  174  A    between atoms: _428  and  _431
REMARK  175  A    between atoms: _431  and  _432
REMARK  176  A    between atoms: _434  and  _436
REMARK  177  A    between atoms: _436  and  _437
REMARK  178  A    between atoms: _439  and  _441
REMARK  179  A    between atoms: _441  and  _442
REMARK  180  A    between atoms: _441  and  _444
REMARK  181  A    between atoms: _444  and  _445
REMARK  182  A    between atoms: _448  and  _450
REMARK  183  A    between atoms: _450  and  _451
REMARK  184  A    between atoms: _450  and  _453
REMARK  185  A    between atoms: _453  and  _454
REMARK  186  A    between atoms: _457  and  _459
REMARK  187  A    between atoms: _459  and  _460
REMARK  188  A    between atoms: _459  and  _462
REMARK  189  A    between atoms: _462  and  _463
REMARK  190  A    between atoms: _468  and  _470
REMARK  191  A    between atoms: _470  and  _471
REMARK  192  A    between atoms: _470  and  _473
REMARK  193  A    between atoms: _473  and  _474
REMARK  194  A    between atoms: _474  and  _475
REMARK  195  A    between atoms: _475  and  _476
REMARK  196  A    between atoms: _485  and  _487
REMARK  197  A    between atoms: _487  and  _488
REMARK  198  A    between atoms: _487  and  _490
REMARK  199  A    between atoms: _490  and  _491
REMARK  200  A    between atoms: _493  and  _495
REMARK  201  A    between atoms: _495  and  _496
REMARK  202  A    between atoms: _495  and  _498
REMARK  203  A    between atoms: _498  and  _499
REMARK  204  A    between atoms: _499  and  _500
REMARK  205  A    between atoms: _505  and  _507
REMARK  206  A    between atoms: _507  and  _508
REMARK  207  A    between atoms: _507  and  _510
REMARK  208  A    between atoms: _510  and  _511
REMARK  209  A    between atoms: _513  and  _515
REMARK  210  A    between atoms: _515  and  _516
REMARK  211  A    between atoms: _515  and  _518
REMARK  212  A    between atoms: _518  and  _519
REMARK  213  A    between atoms: _521  and  _523
REMARK  214  A    between atoms: _523  and  _524
REMARK  215  A    between atoms: _523  and  _526
REMARK  216  A    between atoms: _526  and  _527
REMARK  217  A    between atoms: _530  and  _532
REMARK  218  A    between atoms: _532  and  _533
REMARK  219  A    between atoms: _535  and  _537
REMARK  220  A    between atoms: _537  and  _538
REMARK  221  A    between atoms: _537  and  _540
REMARK  222  A    between atoms: _540  and  _541
REMARK  223  A    between atoms: _544  and  _546
REMARK  224  A    between atoms: _546  and  _547
REMARK  225  A    between atoms: _546  and  _549
REMARK  226  A    between atoms: _552  and  _554
REMARK  227  A    between atoms: _554  and  _555
REMARK  228  A    between atoms: _554  and  _557
REMARK  229  A    between atoms: _557  and  _558
REMARK  230  A    between atoms: _558  and  _559
REMARK                            x       y       z     vdW  Elec       q    Type
REMARK                         _______ _______ _______ _____ _____    ______ ____
ROOT
ATOM      1  O   HOH     1     -12.416  12.625  38.808  0.00  0.00    +0.000 OA
ENDROOT
TORSDOF 0
