REMARK  Name = ../refined-set-2016/3d6q/3d6q_pocket.pdb
REMARK  137 active torsions:
REMARK  status: ('A' for Active; 'I' for Inactive)
REMARK    1  A    between atoms: _1  and  _3
REMARK    2  A    between atoms: _3  and  _4
REMARK    3  A    between atoms: _3  and  _6
REMARK    4  A    between atoms: _6  and  _7
REMARK    5  A    between atoms: _7  and  _8
REMARK    6  A    between atoms: _8  and  _9
REMARK    7  A    between atoms: _9  and  _10
REMARK    8  A    between atoms: _14  and  _16
REMARK    9  A    between atoms: _16  and  _17
REMARK   10  A    between atoms: _16  and  _19
REMARK   11  A    between atoms: _19  and  _20
REMARK   12  A    between atoms: _26  and  _28
REMARK   13  A    between atoms: _28  and  _29
REMARK   14  A    between atoms: _28  and  _31
REMARK   15  A    between atoms: _31  and  _32
REMARK   16  A    between atoms: _32  and  _33
REMARK   17  A    between atoms: _38  and  _40
REMARK   18  A    between atoms: _40  and  _41
REMARK   19  A    between atoms: _40  and  _43
REMARK   20  A    between atoms: _43  and  _44
REMARK   21  A    between atoms: _49  and  _51
REMARK   22  A    between atoms: _51  and  _52
REMARK   23  A    between atoms: _51  and  _54
REMARK   24  A    between atoms: _54  and  _55
REMARK   25  A    between atoms: _55  and  _56
REMARK   26  A    between atoms: _58  and  _60
REMARK   27  A    between atoms: _60  and  _61
REMARK   28  A    between atoms: _60  and  _63
REMARK   29  A    between atoms: _63  and  _64
REMARK   30  A    between atoms: _67  and  _69
REMARK   31  A    between atoms: _69  and  _70
REMARK   32  A    between atoms: _69  and  _72
REMARK   33  A    between atoms: _72  and  _73
REMARK   34  A    between atoms: _73  and  _74
REMARK   35  A    between atoms: _74  and  _75
REMARK   36  A    between atoms: _84  and  _86
REMARK   37  A    between atoms: _86  and  _87
REMARK   38  A    between atoms: _86  and  _89
REMARK   39  A    between atoms: _89  and  _90
REMARK   40  A    between atoms: _90  and  _91
REMARK   41  A    between atoms: _91  and  _92
REMARK   42  A    between atoms: _92  and  _93
REMARK   43  A    between atoms: _98  and  _99
REMARK   44  A    between atoms: _104  and  _106
REMARK   45  A    between atoms: _106  and  _107
REMARK   46  A    between atoms: _106  and  _109
REMARK   47  A    between atoms: _112  and  _114
REMARK   48  A    between atoms: _114  and  _115
REMARK   49  A    between atoms: _114  and  _117
REMARK   50  A    between atoms: _117  and  _118
REMARK   51  A    between atoms: _123  and  _125
REMARK   52  A    between atoms: _125  and  _126
REMARK   53  A    between atoms: _125  and  _128
REMARK   54  A    between atoms: _128  and  _129
REMARK   55  A    between atoms: _132  and  _134
REMARK   56  A    between atoms: _134  and  _135
REMARK   57  A    between atoms: _134  and  _137
REMARK   58  A    between atoms: _137  and  _138
REMARK   59  A    between atoms: _144  and  _146
REMARK   60  A    between atoms: _146  and  _147
REMARK   61  A    between atoms: _146  and  _149
REMARK   62  A    between atoms: _152  and  _154
REMARK   63  A    between atoms: _154  and  _155
REMARK   64  A    between atoms: _154  and  _157
REMARK   65  A    between atoms: _157  and  _158
REMARK   66  A    between atoms: _158  and  _159
REMARK   67  A    between atoms: _159  and  _160
REMARK   68  A    between atoms: _160  and  _161
REMARK   69  A    between atoms: _165  and  _167
REMARK   70  A    between atoms: _167  and  _168
REMARK   71  A    between atoms: _167  and  _170
REMARK   72  A    between atoms: _170  and  _171
REMARK   73  A    between atoms: _176  and  _178
REMARK   74  A    between atoms: _178  and  _179
REMARK   75  A    between atoms: _178  and  _181
REMARK   76  A    between atoms: _181  and  _182
REMARK   77  A    between atoms: _185  and  _187
REMARK   78  A    between atoms: _187  and  _188
REMARK   79  A    between atoms: _187  and  _190
REMARK   80  A    between atoms: _190  and  _191
REMARK   81  A    between atoms: _194  and  _196
REMARK   82  A    between atoms: _196  and  _197
REMARK   83  A    between atoms: _196  and  _199
REMARK   84  A    between atoms: _199  and  _200
REMARK   85  A    between atoms: _203  and  _205
REMARK   86  A    between atoms: _205  and  _206
REMARK   87  A    between atoms: _205  and  _208
REMARK   88  A    between atoms: _210  and  _212
REMARK   89  A    between atoms: _212  and  _213
REMARK   90  A    between atoms: _212  and  _215
REMARK   91  A    between atoms: _215  and  _216
REMARK   92  A    between atoms: _216  and  _217
REMARK   93  A    between atoms: _217  and  _218
REMARK   94  A    between atoms: _227  and  _229
REMARK   95  A    between atoms: _229  and  _230
REMARK   96  A    between atoms: _229  and  _232
REMARK   97  A    between atoms: _232  and  _233
REMARK   98  A    between atoms: _233  and  _234
REMARK   99  A    between atoms: _234  and  _235
REMARK  100  A    between atoms: _235  and  _236
REMARK  101  A    between atoms: _240  and  _242
REMARK  102  A    between atoms: _242  and  _243
REMARK  103  A    between atoms: _242  and  _245
REMARK  104  A    between atoms: _245  and  _246
REMARK  105  A    between atoms: _249  and  _251
REMARK  106  A    between atoms: _251  and  _252
REMARK  107  A    between atoms: _251  and  _254
REMARK  108  A    between atoms: _254  and  _255
REMARK  109  A    between atoms: _258  and  _260
REMARK  110  A    between atoms: _260  and  _261
REMARK  111  A    between atoms: _260  and  _263
REMARK  112  A    between atoms: _266  and  _268
REMARK  113  A    between atoms: _268  and  _269
REMARK  114  A    between atoms: _272  and  _274
REMARK  115  A    between atoms: _274  and  _275
REMARK  116  A    between atoms: _274  and  _277
REMARK  117  A    between atoms: _280  and  _282
REMARK  118  A    between atoms: _282  and  _283
REMARK  119  A    between atoms: _282  and  _285
REMARK  120  A    between atoms: _285  and  _286
REMARK  121  A    between atoms: _291  and  _293
REMARK  122  A    between atoms: _293  and  _294
REMARK  123  A    between atoms: _293  and  _296
REMARK  124  A    between atoms: _296  and  _297
REMARK  125  A    between atoms: _303  and  _305
REMARK  126  A    between atoms: _305  and  _306
REMARK  127  A    between atoms: _305  and  _308
REMARK  128  A    between atoms: _308  and  _309
REMARK  129  A    between atoms: _312  and  _314
REMARK  130  A    between atoms: _314  and  _315
REMARK  131  A    between atoms: _318  and  _320
REMARK  132  A    between atoms: _320  and  _321
REMARK  133  A    between atoms: _320  and  _323
REMARK  134  A    between atoms: _323  and  _324
REMARK  135  A    between atoms: _326  and  _328
REMARK  136  A    between atoms: _328  and  _329
REMARK  137  A    between atoms: _328  and  _331
REMARK                            x       y       z     vdW  Elec       q    Type
REMARK                         _______ _______ _______ _____ _____    ______ ____
ROOT
ATOM      1  C   LYS A   1      32.627   9.027  10.611  0.00  0.00    +0.238 C 
ATOM      2  N   PHE A   2      31.908   8.718  11.691  0.00  0.00    -0.298 N 
ATOM      3  H   PHE A   2      31.832   9.401  12.471  0.00  0.00    +0.150 HD
ATOM      4  O   LYS A   1      32.797   8.245   9.677  0.00  0.00    -0.274 OA
ENDROOT
BRANCH   1   5
ATOM      5  CA  LYS A   1      33.208  10.442  10.557  0.00  0.00    +0.145 C 
BRANCH   5   6
ATOM      6  N   LYS A   1      32.198  11.393  11.006  0.00  0.00    -0.238 NA
ATOM      7  H   LYS A   1      32.385  11.963  11.855  0.00  0.00    +0.142 HD
ENDBRANCH   5   6
BRANCH   5   8
ATOM      8  CB  LYS A   1      34.480  10.559  11.406  0.00  0.00    +0.026 C 
BRANCH   8   9
ATOM      9  CG  LYS A   1      35.614   9.624  10.988  0.00  0.00    -0.000 C 
BRANCH   9  10
ATOM     10  CD  LYS A   1      36.875   9.901  11.786  0.00  0.00    -0.024 C 
BRANCH  10  11
ATOM     11  CE  LYS A   1      38.027   9.072  11.263  0.00  0.00    -0.086 C 
BRANCH  11  12
ATOM     12  NZ  LYS A   1      39.301   9.394  11.962  0.00  0.00    +0.380 N 
ATOM     13  HZ1 LYS A   1      39.195   9.203  12.979  0.00  0.00    -0.089 HD
ATOM     14  HZ2 LYS A   1      39.529  10.399  11.819  0.00  0.00    -0.089 HD
ATOM     15  HZ3 LYS A   1      40.066   8.805  11.575  0.00  0.00    -0.089 HD
ENDBRANCH  11  12
ENDBRANCH  10  11
ENDBRANCH   9  10
ENDBRANCH   8   9
ENDBRANCH   5   8
ENDBRANCH   1   5
BRANCH   2  16
ATOM     16  CA  PHE A   2      31.225   7.426  11.789  0.00  0.00    +0.141 C 
BRANCH  16  17
ATOM     17  C   PHE A   2      30.248   7.207  10.625  0.00  0.00    +0.227 C 
ATOM     18  O   PHE A   2      30.223   6.132  10.027  0.00  0.00    -0.286 OA
ENDBRANCH  16  17
BRANCH  16  19
ATOM     19  CB  PHE A   2      30.496   7.276  13.133  0.00  0.00    +0.054 C 
BRANCH  19  20
ATOM     20  CG  PHE A   2      29.737   5.981  13.256  0.00  0.00    -0.020 A 
ATOM     21  CD2 PHE A   2      30.337   4.859  13.833  0.00  0.00    -0.004 A 
ATOM     22  CE2 PHE A   2      29.650   3.650  13.931  0.00  0.00    -0.000 A 
ATOM     23  CZ  PHE A   2      28.349   3.547  13.442  0.00  0.00    -0.000 A 
ATOM     24  CE1 PHE A   2      27.743   4.659  12.849  0.00  0.00    -0.000 A 
ATOM     25  CD1 PHE A   2      28.438   5.870  12.766  0.00  0.00    -0.004 A 
ENDBRANCH  19  20
ENDBRANCH  16  19
ENDBRANCH   2  16
TORSDOF 11
REMARK  Name = ../refined-set-2016/3d6q/3d6q_pocket.pdb
REMARK  137 active torsions:
REMARK  status: ('A' for Active; 'I' for Inactive)
REMARK    1  A    between atoms: _1  and  _3
REMARK    2  A    between atoms: _3  and  _4
REMARK    3  A    between atoms: _3  and  _6
REMARK    4  A    between atoms: _6  and  _7
REMARK    5  A    between atoms: _7  and  _8
REMARK    6  A    between atoms: _8  and  _9
REMARK    7  A    between atoms: _9  and  _10
REMARK    8  A    between atoms: _14  and  _16
REMARK    9  A    between atoms: _16  and  _17
REMARK   10  A    between atoms: _16  and  _19
REMARK   11  A    between atoms: _19  and  _20
REMARK   12  A    between atoms: _26  and  _28
REMARK   13  A    between atoms: _28  and  _29
REMARK   14  A    between atoms: _28  and  _31
REMARK   15  A    between atoms: _31  and  _32
REMARK   16  A    between atoms: _32  and  _33
REMARK   17  A    between atoms: _38  and  _40
REMARK   18  A    between atoms: _40  and  _41
REMARK   19  A    between atoms: _40  and  _43
REMARK   20  A    between atoms: _43  and  _44
REMARK   21  A    between atoms: _49  and  _51
REMARK   22  A    between atoms: _51  and  _52
REMARK   23  A    between atoms: _51  and  _54
REMARK   24  A    between atoms: _54  and  _55
REMARK   25  A    between atoms: _55  and  _56
REMARK   26  A    between atoms: _58  and  _60
REMARK   27  A    between atoms: _60  and  _61
REMARK   28  A    between atoms: _60  and  _63
REMARK   29  A    between atoms: _63  and  _64
REMARK   30  A    between atoms: _67  and  _69
REMARK   31  A    between atoms: _69  and  _70
REMARK   32  A    between atoms: _69  and  _72
REMARK   33  A    between atoms: _72  and  _73
REMARK   34  A    between atoms: _73  and  _74
REMARK   35  A    between atoms: _74  and  _75
REMARK   36  A    between atoms: _84  and  _86
REMARK   37  A    between atoms: _86  and  _87
REMARK   38  A    between atoms: _86  and  _89
REMARK   39  A    between atoms: _89  and  _90
REMARK   40  A    between atoms: _90  and  _91
REMARK   41  A    between atoms: _91  and  _92
REMARK   42  A    between atoms: _92  and  _93
REMARK   43  A    between atoms: _98  and  _99
REMARK   44  A    between atoms: _104  and  _106
REMARK   45  A    between atoms: _106  and  _107
REMARK   46  A    between atoms: _106  and  _109
REMARK   47  A    between atoms: _112  and  _114
REMARK   48  A    between atoms: _114  and  _115
REMARK   49  A    between atoms: _114  and  _117
REMARK   50  A    between atoms: _117  and  _118
REMARK   51  A    between atoms: _123  and  _125
REMARK   52  A    between atoms: _125  and  _126
REMARK   53  A    between atoms: _125  and  _128
REMARK   54  A    between atoms: _128  and  _129
REMARK   55  A    between atoms: _132  and  _134
REMARK   56  A    between atoms: _134  and  _135
REMARK   57  A    between atoms: _134  and  _137
REMARK   58  A    between atoms: _137  and  _138
REMARK   59  A    between atoms: _144  and  _146
REMARK   60  A    between atoms: _146  and  _147
REMARK   61  A    between atoms: _146  and  _149
REMARK   62  A    between atoms: _152  and  _154
REMARK   63  A    between atoms: _154  and  _155
REMARK   64  A    between atoms: _154  and  _157
REMARK   65  A    between atoms: _157  and  _158
REMARK   66  A    between atoms: _158  and  _159
REMARK   67  A    between atoms: _159  and  _160
REMARK   68  A    between atoms: _160  and  _161
REMARK   69  A    between atoms: _165  and  _167
REMARK   70  A    between atoms: _167  and  _168
REMARK   71  A    between atoms: _167  and  _170
REMARK   72  A    between atoms: _170  and  _171
REMARK   73  A    between atoms: _176  and  _178
REMARK   74  A    between atoms: _178  and  _179
REMARK   75  A    between atoms: _178  and  _181
REMARK   76  A    between atoms: _181  and  _182
REMARK   77  A    between atoms: _185  and  _187
REMARK   78  A    between atoms: _187  and  _188
REMARK   79  A    between atoms: _187  and  _190
REMARK   80  A    between atoms: _190  and  _191
REMARK   81  A    between atoms: _194  and  _196
REMARK   82  A    between atoms: _196  and  _197
REMARK   83  A    between atoms: _196  and  _199
REMARK   84  A    between atoms: _199  and  _200
REMARK   85  A    between atoms: _203  and  _205
REMARK   86  A    between atoms: _205  and  _206
REMARK   87  A    between atoms: _205  and  _208
REMARK   88  A    between atoms: _210  and  _212
REMARK   89  A    between atoms: _212  and  _213
REMARK   90  A    between atoms: _212  and  _215
REMARK   91  A    between atoms: _215  and  _216
REMARK   92  A    between atoms: _216  and  _217
REMARK   93  A    between atoms: _217  and  _218
REMARK   94  A    between atoms: _227  and  _229
REMARK   95  A    between atoms: _229  and  _230
REMARK   96  A    between atoms: _229  and  _232
REMARK   97  A    between atoms: _232  and  _233
REMARK   98  A    between atoms: _233  and  _234
REMARK   99  A    between atoms: _234  and  _235
REMARK  100  A    between atoms: _235  and  _236
REMARK  101  A    between atoms: _240  and  _242
REMARK  102  A    between atoms: _242  and  _243
REMARK  103  A    between atoms: _242  and  _245
REMARK  104  A    between atoms: _245  and  _246
REMARK  105  A    between atoms: _249  and  _251
REMARK  106  A    between atoms: _251  and  _252
REMARK  107  A    between atoms: _251  and  _254
REMARK  108  A    between atoms: _254  and  _255
REMARK  109  A    between atoms: _258  and  _260
REMARK  110  A    between atoms: _260  and  _261
REMARK  111  A    between atoms: _260  and  _263
REMARK  112  A    between atoms: _266  and  _268
REMARK  113  A    between atoms: _268  and  _269
REMARK  114  A    between atoms: _272  and  _274
REMARK  115  A    between atoms: _274  and  _275
REMARK  116  A    between atoms: _274  and  _277
REMARK  117  A    between atoms: _280  and  _282
REMARK  118  A    between atoms: _282  and  _283
REMARK  119  A    between atoms: _282  and  _285
REMARK  120  A    between atoms: _285  and  _286
REMARK  121  A    between atoms: _291  and  _293
REMARK  122  A    between atoms: _293  and  _294
REMARK  123  A    between atoms: _293  and  _296
REMARK  124  A    between atoms: _296  and  _297
REMARK  125  A    between atoms: _303  and  _305
REMARK  126  A    between atoms: _305  and  _306
REMARK  127  A    between atoms: _305  and  _308
REMARK  128  A    between atoms: _308  and  _309
REMARK  129  A    between atoms: _312  and  _314
REMARK  130  A    between atoms: _314  and  _315
REMARK  131  A    between atoms: _318  and  _320
REMARK  132  A    between atoms: _320  and  _321
REMARK  133  A    between atoms: _320  and  _323
REMARK  134  A    between atoms: _323  and  _324
REMARK  135  A    between atoms: _326  and  _328
REMARK  136  A    between atoms: _328  and  _329
REMARK  137  A    between atoms: _328  and  _331
REMARK                            x       y       z     vdW  Elec       q    Type
REMARK                         _______ _______ _______ _____ _____    ______ ____
ROOT
ATOM      1  C   GLN A   1      32.110   4.097   7.476  0.00  0.00    +0.238 C 
ATOM      2  N   HIS A   2      30.946   4.238   8.112  0.00  0.00    -0.298 N 
ATOM      3  H   HIS A   2      30.569   5.187   8.310  0.00  0.00    +0.150 HD
ATOM      4  O   GLN A   1      32.461   3.030   6.966  0.00  0.00    -0.274 OA
ENDROOT
BRANCH   1   5
ATOM      5  CA  GLN A   1      33.019   5.312   7.401  0.00  0.00    +0.145 C 
BRANCH   5   6
ATOM      6  N   GLN A   1      32.286   6.573   7.423  0.00  0.00    -0.238 NA
ATOM      7  H   GLN A   1      32.188   7.095   8.317  0.00  0.00    +0.142 HD
ENDBRANCH   5   6
BRANCH   5   8
ATOM      8  CB  GLN A   1      34.033   5.251   8.550  0.00  0.00    +0.036 C 
BRANCH   8   9
ATOM      9  CG  GLN A   1      35.169   6.260   8.471  0.00  0.00    +0.087 C 
BRANCH   9  10
ATOM     10  CD  GLN A   1      36.317   5.917   9.424  0.00  0.00    +0.219 C 
ATOM     11  NE2 GLN A   1      35.990   5.298  10.556  0.00  0.00    -0.329 N 
ATOM     12 HE21 GLN A   1      36.731   5.033  11.237  0.00  0.00    +0.145 HD
ATOM     13 HE22 GLN A   1      34.994   5.079  10.760  0.00  0.00    +0.145 HD
ATOM     14  OE1 GLN A   1      37.487   6.199   9.136  0.00  0.00    -0.275 OA
ENDBRANCH   9  10
ENDBRANCH   8   9
ENDBRANCH   5   8
ENDBRANCH   1   5
BRANCH   2  15
ATOM     15  CA  HIS A   2      30.200   3.044   8.530  0.00  0.00    +0.143 C 
BRANCH  15  16
ATOM     16  C   HIS A   2      28.724   2.958   8.149  0.00  0.00    +0.227 C 
ATOM     17  O   HIS A   2      28.116   1.905   8.332  0.00  0.00    -0.286 OA
ENDBRANCH  15  16
BRANCH  15  18
ATOM     18  CB  HIS A   2      30.366   2.794  10.042  0.00  0.00    +0.075 C 
BRANCH  18  19
ATOM     19  CG  HIS A   2      31.789   2.593  10.466  0.00  0.00    +0.082 A 
ATOM     20  CD2 HIS A   2      32.582   3.307  11.299  0.00  0.00    +0.115 A 
ATOM     21  NE2 HIS A   2      33.805   2.681  11.333  0.00  0.00    -0.221 NA
ATOM     22  CE1 HIS A   2      33.765   1.618  10.549  0.00  0.00    +0.199 A 
ATOM     23  ND1 HIS A   2      32.562   1.547  10.007  0.00  0.00    -0.227 NA
ENDBRANCH  18  19
ENDBRANCH  15  18
ENDBRANCH   2  15
TORSDOF 9
REMARK  Name = ../refined-set-2016/3d6q/3d6q_pocket.pdb
REMARK  137 active torsions:
REMARK  status: ('A' for Active; 'I' for Inactive)
REMARK    1  A    between atoms: _1  and  _3
REMARK    2  A    between atoms: _3  and  _4
REMARK    3  A    between atoms: _3  and  _6
REMARK    4  A    between atoms: _6  and  _7
REMARK    5  A    between atoms: _7  and  _8
REMARK    6  A    between atoms: _8  and  _9
REMARK    7  A    between atoms: _9  and  _10
REMARK    8  A    between atoms: _14  and  _16
REMARK    9  A    between atoms: _16  and  _17
REMARK   10  A    between atoms: _16  and  _19
REMARK   11  A    between atoms: _19  and  _20
REMARK   12  A    between atoms: _26  and  _28
REMARK   13  A    between atoms: _28  and  _29
REMARK   14  A    between atoms: _28  and  _31
REMARK   15  A    between atoms: _31  and  _32
REMARK   16  A    between atoms: _32  and  _33
REMARK   17  A    between atoms: _38  and  _40
REMARK   18  A    between atoms: _40  and  _41
REMARK   19  A    between atoms: _40  and  _43
REMARK   20  A    between atoms: _43  and  _44
REMARK   21  A    between atoms: _49  and  _51
REMARK   22  A    between atoms: _51  and  _52
REMARK   23  A    between atoms: _51  and  _54
REMARK   24  A    between atoms: _54  and  _55
REMARK   25  A    between atoms: _55  and  _56
REMARK   26  A    between atoms: _58  and  _60
REMARK   27  A    between atoms: _60  and  _61
REMARK   28  A    between atoms: _60  and  _63
REMARK   29  A    between atoms: _63  and  _64
REMARK   30  A    between atoms: _67  and  _69
REMARK   31  A    between atoms: _69  and  _70
REMARK   32  A    between atoms: _69  and  _72
REMARK   33  A    between atoms: _72  and  _73
REMARK   34  A    between atoms: _73  and  _74
REMARK   35  A    between atoms: _74  and  _75
REMARK   36  A    between atoms: _84  and  _86
REMARK   37  A    between atoms: _86  and  _87
REMARK   38  A    between atoms: _86  and  _89
REMARK   39  A    between atoms: _89  and  _90
REMARK   40  A    between atoms: _90  and  _91
REMARK   41  A    between atoms: _91  and  _92
REMARK   42  A    between atoms: _92  and  _93
REMARK   43  A    between atoms: _98  and  _99
REMARK   44  A    between atoms: _104  and  _106
REMARK   45  A    between atoms: _106  and  _107
REMARK   46  A    between atoms: _106  and  _109
REMARK   47  A    between atoms: _112  and  _114
REMARK   48  A    between atoms: _114  and  _115
REMARK   49  A    between atoms: _114  and  _117
REMARK   50  A    between atoms: _117  and  _118
REMARK   51  A    between atoms: _123  and  _125
REMARK   52  A    between atoms: _125  and  _126
REMARK   53  A    between atoms: _125  and  _128
REMARK   54  A    between atoms: _128  and  _129
REMARK   55  A    between atoms: _132  and  _134
REMARK   56  A    between atoms: _134  and  _135
REMARK   57  A    between atoms: _134  and  _137
REMARK   58  A    between atoms: _137  and  _138
REMARK   59  A    between atoms: _144  and  _146
REMARK   60  A    between atoms: _146  and  _147
REMARK   61  A    between atoms: _146  and  _149
REMARK   62  A    between atoms: _152  and  _154
REMARK   63  A    between atoms: _154  and  _155
REMARK   64  A    between atoms: _154  and  _157
REMARK   65  A    between atoms: _157  and  _158
REMARK   66  A    between atoms: _158  and  _159
REMARK   67  A    between atoms: _159  and  _160
REMARK   68  A    between atoms: _160  and  _161
REMARK   69  A    between atoms: _165  and  _167
REMARK   70  A    between atoms: _167  and  _168
REMARK   71  A    between atoms: _167  and  _170
REMARK   72  A    between atoms: _170  and  _171
REMARK   73  A    between atoms: _176  and  _178
REMARK   74  A    between atoms: _178  and  _179
REMARK   75  A    between atoms: _178  and  _181
REMARK   76  A    between atoms: _181  and  _182
REMARK   77  A    between atoms: _185  and  _187
REMARK   78  A    between atoms: _187  and  _188
REMARK   79  A    between atoms: _187  and  _190
REMARK   80  A    between atoms: _190  and  _191
REMARK   81  A    between atoms: _194  and  _196
REMARK   82  A    between atoms: _196  and  _197
REMARK   83  A    between atoms: _196  and  _199
REMARK   84  A    between atoms: _199  and  _200
REMARK   85  A    between atoms: _203  and  _205
REMARK   86  A    between atoms: _205  and  _206
REMARK   87  A    between atoms: _205  and  _208
REMARK   88  A    between atoms: _210  and  _212
REMARK   89  A    between atoms: _212  and  _213
REMARK   90  A    between atoms: _212  and  _215
REMARK   91  A    between atoms: _215  and  _216
REMARK   92  A    between atoms: _216  and  _217
REMARK   93  A    between atoms: _217  and  _218
REMARK   94  A    between atoms: _227  and  _229
REMARK   95  A    between atoms: _229  and  _230
REMARK   96  A    between atoms: _229  and  _232
REMARK   97  A    between atoms: _232  and  _233
REMARK   98  A    between atoms: _233  and  _234
REMARK   99  A    between atoms: _234  and  _235
REMARK  100  A    between atoms: _235  and  _236
REMARK  101  A    between atoms: _240  and  _242
REMARK  102  A    between atoms: _242  and  _243
REMARK  103  A    between atoms: _242  and  _245
REMARK  104  A    between atoms: _245  and  _246
REMARK  105  A    between atoms: _249  and  _251
REMARK  106  A    between atoms: _251  and  _252
REMARK  107  A    between atoms: _251  and  _254
REMARK  108  A    between atoms: _254  and  _255
REMARK  109  A    between atoms: _258  and  _260
REMARK  110  A    between atoms: _260  and  _261
REMARK  111  A    between atoms: _260  and  _263
REMARK  112  A    between atoms: _266  and  _268
REMARK  113  A    between atoms: _268  and  _269
REMARK  114  A    between atoms: _272  and  _274
REMARK  115  A    between atoms: _274  and  _275
REMARK  116  A    between atoms: _274  and  _277
REMARK  117  A    between atoms: _280  and  _282
REMARK  118  A    between atoms: _282  and  _283
REMARK  119  A    between atoms: _282  and  _285
REMARK  120  A    between atoms: _285  and  _286
REMARK  121  A    between atoms: _291  and  _293
REMARK  122  A    between atoms: _293  and  _294
REMARK  123  A    between atoms: _293  and  _296
REMARK  124  A    between atoms: _296  and  _297
REMARK  125  A    between atoms: _303  and  _305
REMARK  126  A    between atoms: _305  and  _306
REMARK  127  A    between atoms: _305  and  _308
REMARK  128  A    between atoms: _308  and  _309
REMARK  129  A    between atoms: _312  and  _314
REMARK  130  A    between atoms: _314  and  _315
REMARK  131  A    between atoms: _318  and  _320
REMARK  132  A    between atoms: _320  and  _321
REMARK  133  A    between atoms: _320  and  _323
REMARK  134  A    between atoms: _323  and  _324
REMARK  135  A    between atoms: _326  and  _328
REMARK  136  A    between atoms: _328  and  _329
REMARK  137  A    between atoms: _328  and  _331
REMARK                            x       y       z     vdW  Elec       q    Type
REMARK                         _______ _______ _______ _____ _____    ______ ____
ROOT
ATOM      1  CA  MET A   1      36.188   2.056   0.399  0.00  0.00    +0.134 C 
ENDROOT
BRANCH   1   2
ATOM      2  N   MET A   1      34.987   1.679  -0.343  0.00  0.00    -0.239 NA
ATOM      3  H   MET A   1      34.925   0.739  -0.783  0.00  0.00    +0.142 HD
ENDBRANCH   1   2
BRANCH   1   4
ATOM      4  C   MET A   1      36.856   3.274  -0.241  0.00  0.00    +0.224 C 
ATOM      5  O   MET A   1      37.324   4.172   0.456  0.00  0.00    -0.287 OA
ENDBRANCH   1   4
BRANCH   1   6
ATOM      6  CB  MET A   1      37.152   0.873   0.516  0.00  0.00    +0.037 C 
BRANCH   6   7
ATOM      7  CG  MET A   1      36.591  -0.304   1.329  0.00  0.00    +0.059 C 
BRANCH   7   8
ATOM      8  SD  MET A   1      36.285   0.122   3.060  0.00  0.00    -0.139 S 
ATOM      9  CE  MET A   1      37.962   0.279   3.671  0.00  0.00    +0.069 C 
ENDBRANCH   7   8
ENDBRANCH   6   7
ENDBRANCH   1   6
TORSDOF 5
REMARK  Name = ../refined-set-2016/3d6q/3d6q_pocket.pdb
REMARK  137 active torsions:
REMARK  status: ('A' for Active; 'I' for Inactive)
REMARK    1  A    between atoms: _1  and  _3
REMARK    2  A    between atoms: _3  and  _4
REMARK    3  A    between atoms: _3  and  _6
REMARK    4  A    between atoms: _6  and  _7
REMARK    5  A    between atoms: _7  and  _8
REMARK    6  A    between atoms: _8  and  _9
REMARK    7  A    between atoms: _9  and  _10
REMARK    8  A    between atoms: _14  and  _16
REMARK    9  A    between atoms: _16  and  _17
REMARK   10  A    between atoms: _16  and  _19
REMARK   11  A    between atoms: _19  and  _20
REMARK   12  A    between atoms: _26  and  _28
REMARK   13  A    between atoms: _28  and  _29
REMARK   14  A    between atoms: _28  and  _31
REMARK   15  A    between atoms: _31  and  _32
REMARK   16  A    between atoms: _32  and  _33
REMARK   17  A    between atoms: _38  and  _40
REMARK   18  A    between atoms: _40  and  _41
REMARK   19  A    between atoms: _40  and  _43
REMARK   20  A    between atoms: _43  and  _44
REMARK   21  A    between atoms: _49  and  _51
REMARK   22  A    between atoms: _51  and  _52
REMARK   23  A    between atoms: _51  and  _54
REMARK   24  A    between atoms: _54  and  _55
REMARK   25  A    between atoms: _55  and  _56
REMARK   26  A    between atoms: _58  and  _60
REMARK   27  A    between atoms: _60  and  _61
REMARK   28  A    between atoms: _60  and  _63
REMARK   29  A    between atoms: _63  and  _64
REMARK   30  A    between atoms: _67  and  _69
REMARK   31  A    between atoms: _69  and  _70
REMARK   32  A    between atoms: _69  and  _72
REMARK   33  A    between atoms: _72  and  _73
REMARK   34  A    between atoms: _73  and  _74
REMARK   35  A    between atoms: _74  and  _75
REMARK   36  A    between atoms: _84  and  _86
REMARK   37  A    between atoms: _86  and  _87
REMARK   38  A    between atoms: _86  and  _89
REMARK   39  A    between atoms: _89  and  _90
REMARK   40  A    between atoms: _90  and  _91
REMARK   41  A    between atoms: _91  and  _92
REMARK   42  A    between atoms: _92  and  _93
REMARK   43  A    between atoms: _98  and  _99
REMARK   44  A    between atoms: _104  and  _106
REMARK   45  A    between atoms: _106  and  _107
REMARK   46  A    between atoms: _106  and  _109
REMARK   47  A    between atoms: _112  and  _114
REMARK   48  A    between atoms: _114  and  _115
REMARK   49  A    between atoms: _114  and  _117
REMARK   50  A    between atoms: _117  and  _118
REMARK   51  A    between atoms: _123  and  _125
REMARK   52  A    between atoms: _125  and  _126
REMARK   53  A    between atoms: _125  and  _128
REMARK   54  A    between atoms: _128  and  _129
REMARK   55  A    between atoms: _132  and  _134
REMARK   56  A    between atoms: _134  and  _135
REMARK   57  A    between atoms: _134  and  _137
REMARK   58  A    between atoms: _137  and  _138
REMARK   59  A    between atoms: _144  and  _146
REMARK   60  A    between atoms: _146  and  _147
REMARK   61  A    between atoms: _146  and  _149
REMARK   62  A    between atoms: _152  and  _154
REMARK   63  A    between atoms: _154  and  _155
REMARK   64  A    between atoms: _154  and  _157
REMARK   65  A    between atoms: _157  and  _158
REMARK   66  A    between atoms: _158  and  _159
REMARK   67  A    between atoms: _159  and  _160
REMARK   68  A    between atoms: _160  and  _161
REMARK   69  A    between atoms: _165  and  _167
REMARK   70  A    between atoms: _167  and  _168
REMARK   71  A    between atoms: _167  and  _170
REMARK   72  A    between atoms: _170  and  _171
REMARK   73  A    between atoms: _176  and  _178
REMARK   74  A    between atoms: _178  and  _179
REMARK   75  A    between atoms: _178  and  _181
REMARK   76  A    between atoms: _181  and  _182
REMARK   77  A    between atoms: _185  and  _187
REMARK   78  A    between atoms: _187  and  _188
REMARK   79  A    between atoms: _187  and  _190
REMARK   80  A    between atoms: _190  and  _191
REMARK   81  A    between atoms: _194  and  _196
REMARK   82  A    between atoms: _196  and  _197
REMARK   83  A    between atoms: _196  and  _199
REMARK   84  A    between atoms: _199  and  _200
REMARK   85  A    between atoms: _203  and  _205
REMARK   86  A    between atoms: _205  and  _206
REMARK   87  A    between atoms: _205  and  _208
REMARK   88  A    between atoms: _210  and  _212
REMARK   89  A    between atoms: _212  and  _213
REMARK   90  A    between atoms: _212  and  _215
REMARK   91  A    between atoms: _215  and  _216
REMARK   92  A    between atoms: _216  and  _217
REMARK   93  A    between atoms: _217  and  _218
REMARK   94  A    between atoms: _227  and  _229
REMARK   95  A    between atoms: _229  and  _230
REMARK   96  A    between atoms: _229  and  _232
REMARK   97  A    between atoms: _232  and  _233
REMARK   98  A    between atoms: _233  and  _234
REMARK   99  A    between atoms: _234  and  _235
REMARK  100  A    between atoms: _235  and  _236
REMARK  101  A    between atoms: _240  and  _242
REMARK  102  A    between atoms: _242  and  _243
REMARK  103  A    between atoms: _242  and  _245
REMARK  104  A    between atoms: _245  and  _246
REMARK  105  A    between atoms: _249  and  _251
REMARK  106  A    between atoms: _251  and  _252
REMARK  107  A    between atoms: _251  and  _254
REMARK  108  A    between atoms: _254  and  _255
REMARK  109  A    between atoms: _258  and  _260
REMARK  110  A    between atoms: _260  and  _261
REMARK  111  A    between atoms: _260  and  _263
REMARK  112  A    between atoms: _266  and  _268
REMARK  113  A    between atoms: _268  and  _269
REMARK  114  A    between atoms: _272  and  _274
REMARK  115  A    between atoms: _274  and  _275
REMARK  116  A    between atoms: _274  and  _277
REMARK  117  A    between atoms: _280  and  _282
REMARK  118  A    between atoms: _282  and  _283
REMARK  119  A    between atoms: _282  and  _285
REMARK  120  A    between atoms: _285  and  _286
REMARK  121  A    between atoms: _291  and  _293
REMARK  122  A    between atoms: _293  and  _294
REMARK  123  A    between atoms: _293  and  _296
REMARK  124  A    between atoms: _296  and  _297
REMARK  125  A    between atoms: _303  and  _305
REMARK  126  A    between atoms: _305  and  _306
REMARK  127  A    between atoms: _305  and  _308
REMARK  128  A    between atoms: _308  and  _309
REMARK  129  A    between atoms: _312  and  _314
REMARK  130  A    between atoms: _314  and  _315
REMARK  131  A    between atoms: _318  and  _320
REMARK  132  A    between atoms: _320  and  _321
REMARK  133  A    between atoms: _320  and  _323
REMARK  134  A    between atoms: _323  and  _324
REMARK  135  A    between atoms: _326  and  _328
REMARK  136  A    between atoms: _328  and  _329
REMARK  137  A    between atoms: _328  and  _331
REMARK                            x       y       z     vdW  Elec       q    Type
REMARK                         _______ _______ _______ _____ _____    ______ ____
ROOT
ATOM      1  CA  LEU A   1      39.126   5.181   3.155  0.00  0.00    +0.133 C 
ENDROOT
BRANCH   1   2
ATOM      2  N   LEU A   1      38.429   6.096   2.252  0.00  0.00    -0.239 NA
ATOM      3  H   LEU A   1      37.810   5.701   1.516  0.00  0.00    +0.142 HD
ENDBRANCH   1   2
BRANCH   1   4
ATOM      4  C   LEU A   1      40.335   4.535   2.479  0.00  0.00    +0.224 C 
ATOM      5  O   LEU A   1      40.929   3.604   3.027  0.00  0.00    -0.287 OA
ENDBRANCH   1   4
BRANCH   1   6
ATOM      6  CB  LEU A   1      38.166   4.103   3.682  0.00  0.00    +0.025 C 
BRANCH   6   7
ATOM      7  CG  LEU A   1      36.837   4.625   4.228  0.00  0.00    +0.002 C 
ATOM      8  CD2 LEU A   1      37.078   5.623   5.346  0.00  0.00    +0.000 C 
ATOM      9  CD1 LEU A   1      35.967   3.484   4.713  0.00  0.00    +0.000 C 
ENDBRANCH   6   7
ENDBRANCH   1   6
TORSDOF 4
REMARK  Name = ../refined-set-2016/3d6q/3d6q_pocket.pdb
REMARK  137 active torsions:
REMARK  status: ('A' for Active; 'I' for Inactive)
REMARK    1  A    between atoms: _1  and  _3
REMARK    2  A    between atoms: _3  and  _4
REMARK    3  A    between atoms: _3  and  _6
REMARK    4  A    between atoms: _6  and  _7
REMARK    5  A    between atoms: _7  and  _8
REMARK    6  A    between atoms: _8  and  _9
REMARK    7  A    between atoms: _9  and  _10
REMARK    8  A    between atoms: _14  and  _16
REMARK    9  A    between atoms: _16  and  _17
REMARK   10  A    between atoms: _16  and  _19
REMARK   11  A    between atoms: _19  and  _20
REMARK   12  A    between atoms: _26  and  _28
REMARK   13  A    between atoms: _28  and  _29
REMARK   14  A    between atoms: _28  and  _31
REMARK   15  A    between atoms: _31  and  _32
REMARK   16  A    between atoms: _32  and  _33
REMARK   17  A    between atoms: _38  and  _40
REMARK   18  A    between atoms: _40  and  _41
REMARK   19  A    between atoms: _40  and  _43
REMARK   20  A    between atoms: _43  and  _44
REMARK   21  A    between atoms: _49  and  _51
REMARK   22  A    between atoms: _51  and  _52
REMARK   23  A    between atoms: _51  and  _54
REMARK   24  A    between atoms: _54  and  _55
REMARK   25  A    between atoms: _55  and  _56
REMARK   26  A    between atoms: _58  and  _60
REMARK   27  A    between atoms: _60  and  _61
REMARK   28  A    between atoms: _60  and  _63
REMARK   29  A    between atoms: _63  and  _64
REMARK   30  A    between atoms: _67  and  _69
REMARK   31  A    between atoms: _69  and  _70
REMARK   32  A    between atoms: _69  and  _72
REMARK   33  A    between atoms: _72  and  _73
REMARK   34  A    between atoms: _73  and  _74
REMARK   35  A    between atoms: _74  and  _75
REMARK   36  A    between atoms: _84  and  _86
REMARK   37  A    between atoms: _86  and  _87
REMARK   38  A    between atoms: _86  and  _89
REMARK   39  A    between atoms: _89  and  _90
REMARK   40  A    between atoms: _90  and  _91
REMARK   41  A    between atoms: _91  and  _92
REMARK   42  A    between atoms: _92  and  _93
REMARK   43  A    between atoms: _98  and  _99
REMARK   44  A    between atoms: _104  and  _106
REMARK   45  A    between atoms: _106  and  _107
REMARK   46  A    between atoms: _106  and  _109
REMARK   47  A    between atoms: _112  and  _114
REMARK   48  A    between atoms: _114  and  _115
REMARK   49  A    between atoms: _114  and  _117
REMARK   50  A    between atoms: _117  and  _118
REMARK   51  A    between atoms: _123  and  _125
REMARK   52  A    between atoms: _125  and  _126
REMARK   53  A    between atoms: _125  and  _128
REMARK   54  A    between atoms: _128  and  _129
REMARK   55  A    between atoms: _132  and  _134
REMARK   56  A    between atoms: _134  and  _135
REMARK   57  A    between atoms: _134  and  _137
REMARK   58  A    between atoms: _137  and  _138
REMARK   59  A    between atoms: _144  and  _146
REMARK   60  A    between atoms: _146  and  _147
REMARK   61  A    between atoms: _146  and  _149
REMARK   62  A    between atoms: _152  and  _154
REMARK   63  A    between atoms: _154  and  _155
REMARK   64  A    between atoms: _154  and  _157
REMARK   65  A    between atoms: _157  and  _158
REMARK   66  A    between atoms: _158  and  _159
REMARK   67  A    between atoms: _159  and  _160
REMARK   68  A    between atoms: _160  and  _161
REMARK   69  A    between atoms: _165  and  _167
REMARK   70  A    between atoms: _167  and  _168
REMARK   71  A    between atoms: _167  and  _170
REMARK   72  A    between atoms: _170  and  _171
REMARK   73  A    between atoms: _176  and  _178
REMARK   74  A    between atoms: _178  and  _179
REMARK   75  A    between atoms: _178  and  _181
REMARK   76  A    between atoms: _181  and  _182
REMARK   77  A    between atoms: _185  and  _187
REMARK   78  A    between atoms: _187  and  _188
REMARK   79  A    between atoms: _187  and  _190
REMARK   80  A    between atoms: _190  and  _191
REMARK   81  A    between atoms: _194  and  _196
REMARK   82  A    between atoms: _196  and  _197
REMARK   83  A    between atoms: _196  and  _199
REMARK   84  A    between atoms: _199  and  _200
REMARK   85  A    between atoms: _203  and  _205
REMARK   86  A    between atoms: _205  and  _206
REMARK   87  A    between atoms: _205  and  _208
REMARK   88  A    between atoms: _210  and  _212
REMARK   89  A    between atoms: _212  and  _213
REMARK   90  A    between atoms: _212  and  _215
REMARK   91  A    between atoms: _215  and  _216
REMARK   92  A    between atoms: _216  and  _217
REMARK   93  A    between atoms: _217  and  _218
REMARK   94  A    between atoms: _227  and  _229
REMARK   95  A    between atoms: _229  and  _230
REMARK   96  A    between atoms: _229  and  _232
REMARK   97  A    between atoms: _232  and  _233
REMARK   98  A    between atoms: _233  and  _234
REMARK   99  A    between atoms: _234  and  _235
REMARK  100  A    between atoms: _235  and  _236
REMARK  101  A    between atoms: _240  and  _242
REMARK  102  A    between atoms: _242  and  _243
REMARK  103  A    between atoms: _242  and  _245
REMARK  104  A    between atoms: _245  and  _246
REMARK  105  A    between atoms: _249  and  _251
REMARK  106  A    between atoms: _251  and  _252
REMARK  107  A    between atoms: _251  and  _254
REMARK  108  A    between atoms: _254  and  _255
REMARK  109  A    between atoms: _258  and  _260
REMARK  110  A    between atoms: _260  and  _261
REMARK  111  A    between atoms: _260  and  _263
REMARK  112  A    between atoms: _266  and  _268
REMARK  113  A    between atoms: _268  and  _269
REMARK  114  A    between atoms: _272  and  _274
REMARK  115  A    between atoms: _274  and  _275
REMARK  116  A    between atoms: _274  and  _277
REMARK  117  A    between atoms: _280  and  _282
REMARK  118  A    between atoms: _282  and  _283
REMARK  119  A    between atoms: _282  and  _285
REMARK  120  A    between atoms: _285  and  _286
REMARK  121  A    between atoms: _291  and  _293
REMARK  122  A    between atoms: _293  and  _294
REMARK  123  A    between atoms: _293  and  _296
REMARK  124  A    between atoms: _296  and  _297
REMARK  125  A    between atoms: _303  and  _305
REMARK  126  A    between atoms: _305  and  _306
REMARK  127  A    between atoms: _305  and  _308
REMARK  128  A    between atoms: _308  and  _309
REMARK  129  A    between atoms: _312  and  _314
REMARK  130  A    between atoms: _314  and  _315
REMARK  131  A    between atoms: _318  and  _320
REMARK  132  A    between atoms: _320  and  _321
REMARK  133  A    between atoms: _320  and  _323
REMARK  134  A    between atoms: _323  and  _324
REMARK  135  A    between atoms: _326  and  _328
REMARK  136  A    between atoms: _328  and  _329
REMARK  137  A    between atoms: _328  and  _331
REMARK                            x       y       z     vdW  Elec       q    Type
REMARK                         _______ _______ _______ _____ _____    ______ ____
ROOT
ATOM      1  NE  ARG A   1      45.280   2.624   7.594  0.00  0.00    -0.265 N 
ATOM      2  CZ  ARG A   1      45.227   1.879   8.695  0.00  0.00    +0.342 C 
ATOM      3  NH2 ARG A   1      44.180   1.974   9.498  0.00  0.00    -0.292 N 
ATOM      4 HH21 ARG A   1      44.132   1.395  10.360  0.00  0.00    +0.255 HD
ATOM      5 HH22 ARG A   1      43.405   2.628   9.267  0.00  0.00    +0.255 HD
ATOM      6  NH1 ARG A   1      46.210   1.038   8.992  0.00  0.00    -0.292 N 
ATOM      7 HH11 ARG A   1      46.157   0.461   9.856  0.00  0.00    +0.255 HD
ATOM      8 HH12 ARG A   1      47.033   0.956   8.361  0.00  0.00    +0.255 HD
ATOM      9  HE  ARG A   1      44.484   3.268   7.410  0.00  0.00    +0.259 HD
ENDROOT
BRANCH   1  10
ATOM     10  CD  ARG A   1      46.374   2.605   6.624  0.00  0.00    +0.174 C 
BRANCH  10  11
ATOM     11  CG  ARG A   1      45.994   3.406   5.401  0.00  0.00    +0.045 C 
BRANCH  11  12
ATOM     12  CB  ARG A   1      47.050   3.360   4.293  0.00  0.00    +0.029 C 
BRANCH  12  13
ATOM     13  CA  ARG A   1      46.538   3.877   2.945  0.00  0.00    +0.133 C 
BRANCH  13  14
ATOM     14  N   ARG A   1      46.108   5.266   3.055  0.00  0.00    -0.239 NA
ATOM     15  H   ARG A   1      45.086   5.453   3.092  0.00  0.00    +0.142 HD
ENDBRANCH  13  14
BRANCH  13  16
ATOM     16  C   ARG A   1      45.299   3.092   2.525  0.00  0.00    +0.224 C 
ATOM     17  O   ARG A   1      44.228   3.675   2.357  0.00  0.00    -0.287 OA
ENDBRANCH  13  16
ENDBRANCH  12  13
ENDBRANCH  11  12
ENDBRANCH  10  11
ENDBRANCH   1  10
TORSDOF 6
REMARK  Name = ../refined-set-2016/3d6q/3d6q_pocket.pdb
REMARK  137 active torsions:
REMARK  status: ('A' for Active; 'I' for Inactive)
REMARK    1  A    between atoms: _1  and  _3
REMARK    2  A    between atoms: _3  and  _4
REMARK    3  A    between atoms: _3  and  _6
REMARK    4  A    between atoms: _6  and  _7
REMARK    5  A    between atoms: _7  and  _8
REMARK    6  A    between atoms: _8  and  _9
REMARK    7  A    between atoms: _9  and  _10
REMARK    8  A    between atoms: _14  and  _16
REMARK    9  A    between atoms: _16  and  _17
REMARK   10  A    between atoms: _16  and  _19
REMARK   11  A    between atoms: _19  and  _20
REMARK   12  A    between atoms: _26  and  _28
REMARK   13  A    between atoms: _28  and  _29
REMARK   14  A    between atoms: _28  and  _31
REMARK   15  A    between atoms: _31  and  _32
REMARK   16  A    between atoms: _32  and  _33
REMARK   17  A    between atoms: _38  and  _40
REMARK   18  A    between atoms: _40  and  _41
REMARK   19  A    between atoms: _40  and  _43
REMARK   20  A    between atoms: _43  and  _44
REMARK   21  A    between atoms: _49  and  _51
REMARK   22  A    between atoms: _51  and  _52
REMARK   23  A    between atoms: _51  and  _54
REMARK   24  A    between atoms: _54  and  _55
REMARK   25  A    between atoms: _55  and  _56
REMARK   26  A    between atoms: _58  and  _60
REMARK   27  A    between atoms: _60  and  _61
REMARK   28  A    between atoms: _60  and  _63
REMARK   29  A    between atoms: _63  and  _64
REMARK   30  A    between atoms: _67  and  _69
REMARK   31  A    between atoms: _69  and  _70
REMARK   32  A    between atoms: _69  and  _72
REMARK   33  A    between atoms: _72  and  _73
REMARK   34  A    between atoms: _73  and  _74
REMARK   35  A    between atoms: _74  and  _75
REMARK   36  A    between atoms: _84  and  _86
REMARK   37  A    between atoms: _86  and  _87
REMARK   38  A    between atoms: _86  and  _89
REMARK   39  A    between atoms: _89  and  _90
REMARK   40  A    between atoms: _90  and  _91
REMARK   41  A    between atoms: _91  and  _92
REMARK   42  A    between atoms: _92  and  _93
REMARK   43  A    between atoms: _98  and  _99
REMARK   44  A    between atoms: _104  and  _106
REMARK   45  A    between atoms: _106  and  _107
REMARK   46  A    between atoms: _106  and  _109
REMARK   47  A    between atoms: _112  and  _114
REMARK   48  A    between atoms: _114  and  _115
REMARK   49  A    between atoms: _114  and  _117
REMARK   50  A    between atoms: _117  and  _118
REMARK   51  A    between atoms: _123  and  _125
REMARK   52  A    between atoms: _125  and  _126
REMARK   53  A    between atoms: _125  and  _128
REMARK   54  A    between atoms: _128  and  _129
REMARK   55  A    between atoms: _132  and  _134
REMARK   56  A    between atoms: _134  and  _135
REMARK   57  A    between atoms: _134  and  _137
REMARK   58  A    between atoms: _137  and  _138
REMARK   59  A    between atoms: _144  and  _146
REMARK   60  A    between atoms: _146  and  _147
REMARK   61  A    between atoms: _146  and  _149
REMARK   62  A    between atoms: _152  and  _154
REMARK   63  A    between atoms: _154  and  _155
REMARK   64  A    between atoms: _154  and  _157
REMARK   65  A    between atoms: _157  and  _158
REMARK   66  A    between atoms: _158  and  _159
REMARK   67  A    between atoms: _159  and  _160
REMARK   68  A    between atoms: _160  and  _161
REMARK   69  A    between atoms: _165  and  _167
REMARK   70  A    between atoms: _167  and  _168
REMARK   71  A    between atoms: _167  and  _170
REMARK   72  A    between atoms: _170  and  _171
REMARK   73  A    between atoms: _176  and  _178
REMARK   74  A    between atoms: _178  and  _179
REMARK   75  A    between atoms: _178  and  _181
REMARK   76  A    between atoms: _181  and  _182
REMARK   77  A    between atoms: _185  and  _187
REMARK   78  A    between atoms: _187  and  _188
REMARK   79  A    between atoms: _187  and  _190
REMARK   80  A    between atoms: _190  and  _191
REMARK   81  A    between atoms: _194  and  _196
REMARK   82  A    between atoms: _196  and  _197
REMARK   83  A    between atoms: _196  and  _199
REMARK   84  A    between atoms: _199  and  _200
REMARK   85  A    between atoms: _203  and  _205
REMARK   86  A    between atoms: _205  and  _206
REMARK   87  A    between atoms: _205  and  _208
REMARK   88  A    between atoms: _210  and  _212
REMARK   89  A    between atoms: _212  and  _213
REMARK   90  A    between atoms: _212  and  _215
REMARK   91  A    between atoms: _215  and  _216
REMARK   92  A    between atoms: _216  and  _217
REMARK   93  A    between atoms: _217  and  _218
REMARK   94  A    between atoms: _227  and  _229
REMARK   95  A    between atoms: _229  and  _230
REMARK   96  A    between atoms: _229  and  _232
REMARK   97  A    between atoms: _232  and  _233
REMARK   98  A    between atoms: _233  and  _234
REMARK   99  A    between atoms: _234  and  _235
REMARK  100  A    between atoms: _235  and  _236
REMARK  101  A    between atoms: _240  and  _242
REMARK  102  A    between atoms: _242  and  _243
REMARK  103  A    between atoms: _242  and  _245
REMARK  104  A    between atoms: _245  and  _246
REMARK  105  A    between atoms: _249  and  _251
REMARK  106  A    between atoms: _251  and  _252
REMARK  107  A    between atoms: _251  and  _254
REMARK  108  A    between atoms: _254  and  _255
REMARK  109  A    between atoms: _258  and  _260
REMARK  110  A    between atoms: _260  and  _261
REMARK  111  A    between atoms: _260  and  _263
REMARK  112  A    between atoms: _266  and  _268
REMARK  113  A    between atoms: _268  and  _269
REMARK  114  A    between atoms: _272  and  _274
REMARK  115  A    between atoms: _274  and  _275
REMARK  116  A    between atoms: _274  and  _277
REMARK  117  A    between atoms: _280  and  _282
REMARK  118  A    between atoms: _282  and  _283
REMARK  119  A    between atoms: _282  and  _285
REMARK  120  A    between atoms: _285  and  _286
REMARK  121  A    between atoms: _291  and  _293
REMARK  122  A    between atoms: _293  and  _294
REMARK  123  A    between atoms: _293  and  _296
REMARK  124  A    between atoms: _296  and  _297
REMARK  125  A    between atoms: _303  and  _305
REMARK  126  A    between atoms: _305  and  _306
REMARK  127  A    between atoms: _305  and  _308
REMARK  128  A    between atoms: _308  and  _309
REMARK  129  A    between atoms: _312  and  _314
REMARK  130  A    between atoms: _314  and  _315
REMARK  131  A    between atoms: _318  and  _320
REMARK  132  A    between atoms: _320  and  _321
REMARK  133  A    between atoms: _320  and  _323
REMARK  134  A    between atoms: _323  and  _324
REMARK  135  A    between atoms: _326  and  _328
REMARK  136  A    between atoms: _328  and  _329
REMARK  137  A    between atoms: _328  and  _331
REMARK                            x       y       z     vdW  Elec       q    Type
REMARK                         _______ _______ _______ _____ _____    ______ ____
ROOT
ATOM      1  CA  ASN A   4      35.794  -1.656   7.603  0.00  0.00    +0.158 C 
ENDROOT
BRANCH   1   2
ATOM      2  C   ASN A   4      34.413  -2.216   7.317  0.00  0.00    +0.241 C 
ATOM      3  N   THR A   5      33.452  -1.859   8.164  0.00  0.00    -0.295 N 
ATOM      4  H   THR A   5      33.688  -1.199   8.932  0.00  0.00    +0.150 HD
ATOM      5  O   ASN A   4      34.223  -2.920   6.332  0.00  0.00    -0.273 OA
BRANCH   3   6
ATOM      6  CA  THR A   5      32.080  -2.352   8.064  0.00  0.00    +0.176 C 
BRANCH   6   7
ATOM      7  C   THR A   5      31.104  -1.237   7.723  0.00  0.00    +0.243 C 
ATOM      8  O   THR A   5      31.175  -0.145   8.296  0.00  0.00    -0.273 OA
ATOM      9  N   PHE A   6      30.200  -1.526   6.789  0.00  0.00    -0.297 N 
ATOM     10  H   PHE A   6      30.279  -2.434   6.287  0.00  0.00    +0.150 HD
BRANCH   9  11
ATOM     11  CA  PHE A   6      29.104  -0.629   6.436  0.00  0.00    +0.153 C 
BRANCH  11  12
ATOM     12  C   PHE A   6      27.795  -1.231   6.913  0.00  0.00    +0.241 C 
ATOM     13  N   VAL A   7      26.967  -0.397   7.535  0.00  0.00    -0.298 N 
ATOM     14  H   VAL A   7      27.242   0.602   7.627  0.00  0.00    +0.150 HD
ATOM     15  O   PHE A   6      27.555  -2.430   6.738  0.00  0.00    -0.273 OA
BRANCH  13  16
ATOM     16  CA  VAL A   7      25.688  -0.825   8.095  0.00  0.00    +0.137 C 
BRANCH  16  17
ATOM     17  CB  VAL A   7      25.506  -0.305   9.545  0.00  0.00    +0.026 C 
ATOM     18  CG2 VAL A   7      26.728  -0.669  10.424  0.00  0.00    +0.002 C 
ATOM     19  CG1 VAL A   7      24.225  -0.853  10.151  0.00  0.00    +0.002 C 
ENDBRANCH  16  17
BRANCH  16  20
ATOM     20  C   VAL A   7      24.530  -0.345   7.214  0.00  0.00    +0.227 C 
ATOM     21  O   VAL A   7      24.414   0.850   6.923  0.00  0.00    -0.286 OA
ENDBRANCH  16  20
ENDBRANCH  13  16
ENDBRANCH  11  12
BRANCH  11  22
ATOM     22  CB  PHE A   6      29.045  -0.388   4.922  0.00  0.00    +0.055 C 
BRANCH  22  23
ATOM     23  CG  PHE A   6      30.223   0.385   4.387  0.00  0.00    -0.020 A 
ATOM     24  CD2 PHE A   6      30.268   1.769   4.510  0.00  0.00    -0.004 A 
ATOM     25  CE2 PHE A   6      31.349   2.500   4.026  0.00  0.00    -0.000 A 
ATOM     26  CZ  PHE A   6      32.404   1.840   3.408  0.00  0.00    -0.000 A 
ATOM     27  CE1 PHE A   6      32.378   0.454   3.271  0.00  0.00    -0.000 A 
ATOM     28  CD1 PHE A   6      31.286  -0.272   3.768  0.00  0.00    -0.004 A 
ENDBRANCH  22  23
ENDBRANCH  11  22
ENDBRANCH   9  11
ENDBRANCH   6   7
BRANCH   6  29
ATOM     29  CB  THR A   5      31.669  -3.027   9.386  0.00  0.00    +0.137 C 
ATOM     30  CG2 THR A   5      30.251  -3.613   9.297  0.00  0.00    +0.034 C 
BRANCH  29  31
ATOM     31  OG1 THR A   5      32.601  -4.076   9.659  0.00  0.00    -0.382 OA
ATOM     32  HG1 THR A   5      32.582  -4.734   8.919  0.00  0.00    +0.210 HD
ENDBRANCH  29  31
ENDBRANCH   6  29
ENDBRANCH   3   6
ENDBRANCH   1   2
BRANCH   1  35
ATOM     33  C   VAL A   3      38.027  -2.526   8.033  0.00  0.00    +0.241 C 
ATOM     34  O   VAL A   3      38.305  -1.569   8.763  0.00  0.00    -0.273 OA
ATOM     35  N   ASN A   4      36.852  -2.653   7.420  0.00  0.00    -0.297 N 
ATOM     36  H   ASN A   4      36.683  -3.472   6.802  0.00  0.00    +0.150 HD
BRANCH  33  37
ATOM     37  CA  VAL A   3      39.050  -3.627   7.785  0.00  0.00    +0.149 C 
BRANCH  37  39
ATOM     38  C   PRO A   2      41.140  -3.505   6.496  0.00  0.00    +0.241 C 
ATOM     39  N   VAL A   3      40.335  -3.008   7.434  0.00  0.00    -0.297 N 
ATOM     40  H   VAL A   3      40.628  -2.147   7.938  0.00  0.00    +0.150 HD
ATOM     41  O   PRO A   2      40.843  -4.480   5.799  0.00  0.00    -0.273 OA
BRANCH  38  47
ATOM     42  C   LYS A   1      41.875  -0.620   5.426  0.00  0.00    +0.241 C 
ATOM     43  N   PRO A   2      42.499  -1.355   6.363  0.00  0.00    -0.272 N 
ATOM     44  CD  PRO A   2      43.275  -0.843   7.506  0.00  0.00    +0.094 C 
ATOM     45  CG  PRO A   2      44.173  -1.981   7.832  0.00  0.00    +0.024 C 
ATOM     46  CB  PRO A   2      43.469  -3.224   7.435  0.00  0.00    +0.031 C 
ATOM     47  CA  PRO A   2      42.504  -2.823   6.305  0.00  0.00    +0.152 C 
ATOM     48  O   LYS A   1      41.176  -1.118   4.551  0.00  0.00    -0.273 OA
BRANCH  42  49
ATOM     49  CA  LYS A   1      42.119   0.889   5.441  0.00  0.00    +0.145 C 
BRANCH  49  50
ATOM     50  N   LYS A   1      42.662   1.228   4.121  0.00  0.00    -0.238 NA
ATOM     51  H   LYS A   1      42.171   1.922   3.521  0.00  0.00    +0.142 HD
ENDBRANCH  49  50
BRANCH  49  52
ATOM     52  CB  LYS A   1      40.829   1.660   5.758  0.00  0.00    +0.026 C 
BRANCH  52  53
ATOM     53  CG  LYS A   1      40.244   1.321   7.122  0.00  0.00    -0.000 C 
BRANCH  53  54
ATOM     54  CD  LYS A   1      39.144   2.280   7.540  0.00  0.00    -0.024 C 
BRANCH  54  55
ATOM     55  CE  LYS A   1      38.708   1.994   8.985  0.00  0.00    -0.086 C 
BRANCH  55  56
ATOM     56  NZ  LYS A   1      37.563   2.827   9.436  0.00  0.00    +0.380 N 
ATOM     57  HZ1 LYS A   1      37.323   2.582  10.418  0.00  0.00    -0.089 HD
ATOM     58  HZ2 LYS A   1      37.825   3.832   9.383  0.00  0.00    -0.089 HD
ATOM     59  HZ3 LYS A   1      36.743   2.648   8.822  0.00  0.00    -0.089 HD
ENDBRANCH  55  56
ENDBRANCH  54  55
ENDBRANCH  53  54
ENDBRANCH  52  53
ENDBRANCH  49  52
ENDBRANCH  42  49
ENDBRANCH  38  47
ENDBRANCH  37  39
BRANCH  37  60
ATOM     60  CB  VAL A   3      39.174  -4.508   9.071  0.00  0.00    +0.027 C 
ATOM     61  CG2 VAL A   3      37.806  -4.985   9.561  0.00  0.00    +0.002 C 
ATOM     62  CG1 VAL A   3      40.110  -5.697   8.834  0.00  0.00    +0.002 C 
ENDBRANCH  37  60
ENDBRANCH  33  37
ENDBRANCH   1  35
BRANCH   1  63
ATOM     63  CB  ASN A   4      36.040  -0.451   6.699  0.00  0.00    +0.114 C 
BRANCH  63  64
ATOM     64  CG  ASN A   4      35.174   0.726   7.058  0.00  0.00    +0.222 C 
ATOM     65  OD1 ASN A   4      35.395   1.376   8.079  0.00  0.00    -0.275 OA
ATOM     66  ND2 ASN A   4      34.178   1.014   6.217  0.00  0.00    -0.329 N 
ATOM     67 HD21 ASN A   4      33.548   1.818   6.413  0.00  0.00    +0.145 HD
ATOM     68 HD22 ASN A   4      34.032   0.434   5.366  0.00  0.00    +0.145 HD
ENDBRANCH  63  64
ENDBRANCH   1  63
TORSDOF 26
REMARK  Name = ../refined-set-2016/3d6q/3d6q_pocket.pdb
REMARK  137 active torsions:
REMARK  status: ('A' for Active; 'I' for Inactive)
REMARK    1  A    between atoms: _1  and  _3
REMARK    2  A    between atoms: _3  and  _4
REMARK    3  A    between atoms: _3  and  _6
REMARK    4  A    between atoms: _6  and  _7
REMARK    5  A    between atoms: _7  and  _8
REMARK    6  A    between atoms: _8  and  _9
REMARK    7  A    between atoms: _9  and  _10
REMARK    8  A    between atoms: _14  and  _16
REMARK    9  A    between atoms: _16  and  _17
REMARK   10  A    between atoms: _16  and  _19
REMARK   11  A    between atoms: _19  and  _20
REMARK   12  A    between atoms: _26  and  _28
REMARK   13  A    between atoms: _28  and  _29
REMARK   14  A    between atoms: _28  and  _31
REMARK   15  A    between atoms: _31  and  _32
REMARK   16  A    between atoms: _32  and  _33
REMARK   17  A    between atoms: _38  and  _40
REMARK   18  A    between atoms: _40  and  _41
REMARK   19  A    between atoms: _40  and  _43
REMARK   20  A    between atoms: _43  and  _44
REMARK   21  A    between atoms: _49  and  _51
REMARK   22  A    between atoms: _51  and  _52
REMARK   23  A    between atoms: _51  and  _54
REMARK   24  A    between atoms: _54  and  _55
REMARK   25  A    between atoms: _55  and  _56
REMARK   26  A    between atoms: _58  and  _60
REMARK   27  A    between atoms: _60  and  _61
REMARK   28  A    between atoms: _60  and  _63
REMARK   29  A    between atoms: _63  and  _64
REMARK   30  A    between atoms: _67  and  _69
REMARK   31  A    between atoms: _69  and  _70
REMARK   32  A    between atoms: _69  and  _72
REMARK   33  A    between atoms: _72  and  _73
REMARK   34  A    between atoms: _73  and  _74
REMARK   35  A    between atoms: _74  and  _75
REMARK   36  A    between atoms: _84  and  _86
REMARK   37  A    between atoms: _86  and  _87
REMARK   38  A    between atoms: _86  and  _89
REMARK   39  A    between atoms: _89  and  _90
REMARK   40  A    between atoms: _90  and  _91
REMARK   41  A    between atoms: _91  and  _92
REMARK   42  A    between atoms: _92  and  _93
REMARK   43  A    between atoms: _98  and  _99
REMARK   44  A    between atoms: _104  and  _106
REMARK   45  A    between atoms: _106  and  _107
REMARK   46  A    between atoms: _106  and  _109
REMARK   47  A    between atoms: _112  and  _114
REMARK   48  A    between atoms: _114  and  _115
REMARK   49  A    between atoms: _114  and  _117
REMARK   50  A    between atoms: _117  and  _118
REMARK   51  A    between atoms: _123  and  _125
REMARK   52  A    between atoms: _125  and  _126
REMARK   53  A    between atoms: _125  and  _128
REMARK   54  A    between atoms: _128  and  _129
REMARK   55  A    between atoms: _132  and  _134
REMARK   56  A    between atoms: _134  and  _135
REMARK   57  A    between atoms: _134  and  _137
REMARK   58  A    between atoms: _137  and  _138
REMARK   59  A    between atoms: _144  and  _146
REMARK   60  A    between atoms: _146  and  _147
REMARK   61  A    between atoms: _146  and  _149
REMARK   62  A    between atoms: _152  and  _154
REMARK   63  A    between atoms: _154  and  _155
REMARK   64  A    between atoms: _154  and  _157
REMARK   65  A    between atoms: _157  and  _158
REMARK   66  A    between atoms: _158  and  _159
REMARK   67  A    between atoms: _159  and  _160
REMARK   68  A    between atoms: _160  and  _161
REMARK   69  A    between atoms: _165  and  _167
REMARK   70  A    between atoms: _167  and  _168
REMARK   71  A    between atoms: _167  and  _170
REMARK   72  A    between atoms: _170  and  _171
REMARK   73  A    between atoms: _176  and  _178
REMARK   74  A    between atoms: _178  and  _179
REMARK   75  A    between atoms: _178  and  _181
REMARK   76  A    between atoms: _181  and  _182
REMARK   77  A    between atoms: _185  and  _187
REMARK   78  A    between atoms: _187  and  _188
REMARK   79  A    between atoms: _187  and  _190
REMARK   80  A    between atoms: _190  and  _191
REMARK   81  A    between atoms: _194  and  _196
REMARK   82  A    between atoms: _196  and  _197
REMARK   83  A    between atoms: _196  and  _199
REMARK   84  A    between atoms: _199  and  _200
REMARK   85  A    between atoms: _203  and  _205
REMARK   86  A    between atoms: _205  and  _206
REMARK   87  A    between atoms: _205  and  _208
REMARK   88  A    between atoms: _210  and  _212
REMARK   89  A    between atoms: _212  and  _213
REMARK   90  A    between atoms: _212  and  _215
REMARK   91  A    between atoms: _215  and  _216
REMARK   92  A    between atoms: _216  and  _217
REMARK   93  A    between atoms: _217  and  _218
REMARK   94  A    between atoms: _227  and  _229
REMARK   95  A    between atoms: _229  and  _230
REMARK   96  A    between atoms: _229  and  _232
REMARK   97  A    between atoms: _232  and  _233
REMARK   98  A    between atoms: _233  and  _234
REMARK   99  A    between atoms: _234  and  _235
REMARK  100  A    between atoms: _235  and  _236
REMARK  101  A    between atoms: _240  and  _242
REMARK  102  A    between atoms: _242  and  _243
REMARK  103  A    between atoms: _242  and  _245
REMARK  104  A    between atoms: _245  and  _246
REMARK  105  A    between atoms: _249  and  _251
REMARK  106  A    between atoms: _251  and  _252
REMARK  107  A    between atoms: _251  and  _254
REMARK  108  A    between atoms: _254  and  _255
REMARK  109  A    between atoms: _258  and  _260
REMARK  110  A    between atoms: _260  and  _261
REMARK  111  A    between atoms: _260  and  _263
REMARK  112  A    between atoms: _266  and  _268
REMARK  113  A    between atoms: _268  and  _269
REMARK  114  A    between atoms: _272  and  _274
REMARK  115  A    between atoms: _274  and  _275
REMARK  116  A    between atoms: _274  and  _277
REMARK  117  A    between atoms: _280  and  _282
REMARK  118  A    between atoms: _282  and  _283
REMARK  119  A    between atoms: _282  and  _285
REMARK  120  A    between atoms: _285  and  _286
REMARK  121  A    between atoms: _291  and  _293
REMARK  122  A    between atoms: _293  and  _294
REMARK  123  A    between atoms: _293  and  _296
REMARK  124  A    between atoms: _296  and  _297
REMARK  125  A    between atoms: _303  and  _305
REMARK  126  A    between atoms: _305  and  _306
REMARK  127  A    between atoms: _305  and  _308
REMARK  128  A    between atoms: _308  and  _309
REMARK  129  A    between atoms: _312  and  _314
REMARK  130  A    between atoms: _314  and  _315
REMARK  131  A    between atoms: _318  and  _320
REMARK  132  A    between atoms: _320  and  _321
REMARK  133  A    between atoms: _320  and  _323
REMARK  134  A    between atoms: _323  and  _324
REMARK  135  A    between atoms: _326  and  _328
REMARK  136  A    between atoms: _328  and  _329
REMARK  137  A    between atoms: _328  and  _331
REMARK                            x       y       z     vdW  Elec       q    Type
REMARK                         _______ _______ _______ _____ _____    ______ ____
ROOT
ATOM      1  C   LYS A   1      38.775  -3.435  23.462  0.00  0.00    +0.238 C 
ATOM      2  O   LYS A   1      39.674  -4.130  23.935  0.00  0.00    -0.274 OA
ATOM      3  N   ASN A   2      38.781  -2.103  23.527  0.00  0.00    -0.298 N 
ATOM      4  H   ASN A   2      37.991  -1.568  23.114  0.00  0.00    +0.150 HD
ENDROOT
BRANCH   1   5
ATOM      5  CA  LYS A   1      37.582  -4.097  22.768  0.00  0.00    +0.145 C 
BRANCH   5   6
ATOM      6  N   LYS A   1      36.340  -3.345  22.932  0.00  0.00    -0.238 NA
ATOM      7  H   LYS A   1      35.800  -3.067  22.088  0.00  0.00    +0.142 HD
ENDBRANCH   5   6
BRANCH   5   8
ATOM      8  CB  LYS A   1      37.885  -4.335  21.284  0.00  0.00    +0.026 C 
BRANCH   8   9
ATOM      9  CG  LYS A   1      37.010  -5.399  20.651  0.00  0.00    -0.000 C 
BRANCH   9  10
ATOM     10  CD  LYS A   1      37.253  -5.495  19.161  0.00  0.00    -0.024 C 
BRANCH  10  11
ATOM     11  CE  LYS A   1      36.400  -6.585  18.538  0.00  0.00    -0.086 C 
BRANCH  11  12
ATOM     12  NZ  LYS A   1      36.357  -6.462  17.051  0.00  0.00    +0.380 N 
ATOM     13  HZ1 LYS A   1      35.954  -5.539  16.792  0.00  0.00    -0.089 HD
ATOM     14  HZ2 LYS A   1      37.322  -6.539  16.670  0.00  0.00    -0.089 HD
ATOM     15  HZ3 LYS A   1      35.766  -7.222  16.658  0.00  0.00    -0.089 HD
ENDBRANCH  11  12
ENDBRANCH  10  11
ENDBRANCH   9  10
ENDBRANCH   8   9
ENDBRANCH   5   8
ENDBRANCH   1   5
BRANCH   3  16
ATOM     16  CA  ASN A   2      39.881  -1.381  24.170  0.00  0.00    +0.146 C 
BRANCH  16  17
ATOM     17  C   ASN A   2      39.741  -1.258  25.688  0.00  0.00    +0.227 C 
ATOM     18  O   ASN A   2      40.577  -0.621  26.348  0.00  0.00    -0.286 OA
ENDBRANCH  16  17
BRANCH  16  19
ATOM     19  CB  ASN A   2      40.047   0.007  23.550  0.00  0.00    +0.112 C 
BRANCH  19  20
ATOM     20  CG  ASN A   2      38.887   0.939  23.858  0.00  0.00    +0.222 C 
ATOM     21  OD1 ASN A   2      37.967   0.600  24.596  0.00  0.00    -0.275 OA
ATOM     22  ND2 ASN A   2      38.928   2.138  23.276  0.00  0.00    -0.329 N 
ATOM     23 HD21 ASN A   2      38.163   2.823  23.441  0.00  0.00    +0.145 HD
ATOM     24 HD22 ASN A   2      39.725   2.388  22.657  0.00  0.00    +0.145 HD
ENDBRANCH  19  20
ENDBRANCH  16  19
ENDBRANCH   3  16
TORSDOF 11
REMARK  Name = ../refined-set-2016/3d6q/3d6q_pocket.pdb
REMARK  137 active torsions:
REMARK  status: ('A' for Active; 'I' for Inactive)
REMARK    1  A    between atoms: _1  and  _3
REMARK    2  A    between atoms: _3  and  _4
REMARK    3  A    between atoms: _3  and  _6
REMARK    4  A    between atoms: _6  and  _7
REMARK    5  A    between atoms: _7  and  _8
REMARK    6  A    between atoms: _8  and  _9
REMARK    7  A    between atoms: _9  and  _10
REMARK    8  A    between atoms: _14  and  _16
REMARK    9  A    between atoms: _16  and  _17
REMARK   10  A    between atoms: _16  and  _19
REMARK   11  A    between atoms: _19  and  _20
REMARK   12  A    between atoms: _26  and  _28
REMARK   13  A    between atoms: _28  and  _29
REMARK   14  A    between atoms: _28  and  _31
REMARK   15  A    between atoms: _31  and  _32
REMARK   16  A    between atoms: _32  and  _33
REMARK   17  A    between atoms: _38  and  _40
REMARK   18  A    between atoms: _40  and  _41
REMARK   19  A    between atoms: _40  and  _43
REMARK   20  A    between atoms: _43  and  _44
REMARK   21  A    between atoms: _49  and  _51
REMARK   22  A    between atoms: _51  and  _52
REMARK   23  A    between atoms: _51  and  _54
REMARK   24  A    between atoms: _54  and  _55
REMARK   25  A    between atoms: _55  and  _56
REMARK   26  A    between atoms: _58  and  _60
REMARK   27  A    between atoms: _60  and  _61
REMARK   28  A    between atoms: _60  and  _63
REMARK   29  A    between atoms: _63  and  _64
REMARK   30  A    between atoms: _67  and  _69
REMARK   31  A    between atoms: _69  and  _70
REMARK   32  A    between atoms: _69  and  _72
REMARK   33  A    between atoms: _72  and  _73
REMARK   34  A    between atoms: _73  and  _74
REMARK   35  A    between atoms: _74  and  _75
REMARK   36  A    between atoms: _84  and  _86
REMARK   37  A    between atoms: _86  and  _87
REMARK   38  A    between atoms: _86  and  _89
REMARK   39  A    between atoms: _89  and  _90
REMARK   40  A    between atoms: _90  and  _91
REMARK   41  A    between atoms: _91  and  _92
REMARK   42  A    between atoms: _92  and  _93
REMARK   43  A    between atoms: _98  and  _99
REMARK   44  A    between atoms: _104  and  _106
REMARK   45  A    between atoms: _106  and  _107
REMARK   46  A    between atoms: _106  and  _109
REMARK   47  A    between atoms: _112  and  _114
REMARK   48  A    between atoms: _114  and  _115
REMARK   49  A    between atoms: _114  and  _117
REMARK   50  A    between atoms: _117  and  _118
REMARK   51  A    between atoms: _123  and  _125
REMARK   52  A    between atoms: _125  and  _126
REMARK   53  A    between atoms: _125  and  _128
REMARK   54  A    between atoms: _128  and  _129
REMARK   55  A    between atoms: _132  and  _134
REMARK   56  A    between atoms: _134  and  _135
REMARK   57  A    between atoms: _134  and  _137
REMARK   58  A    between atoms: _137  and  _138
REMARK   59  A    between atoms: _144  and  _146
REMARK   60  A    between atoms: _146  and  _147
REMARK   61  A    between atoms: _146  and  _149
REMARK   62  A    between atoms: _152  and  _154
REMARK   63  A    between atoms: _154  and  _155
REMARK   64  A    between atoms: _154  and  _157
REMARK   65  A    between atoms: _157  and  _158
REMARK   66  A    between atoms: _158  and  _159
REMARK   67  A    between atoms: _159  and  _160
REMARK   68  A    between atoms: _160  and  _161
REMARK   69  A    between atoms: _165  and  _167
REMARK   70  A    between atoms: _167  and  _168
REMARK   71  A    between atoms: _167  and  _170
REMARK   72  A    between atoms: _170  and  _171
REMARK   73  A    between atoms: _176  and  _178
REMARK   74  A    between atoms: _178  and  _179
REMARK   75  A    between atoms: _178  and  _181
REMARK   76  A    between atoms: _181  and  _182
REMARK   77  A    between atoms: _185  and  _187
REMARK   78  A    between atoms: _187  and  _188
REMARK   79  A    between atoms: _187  and  _190
REMARK   80  A    between atoms: _190  and  _191
REMARK   81  A    between atoms: _194  and  _196
REMARK   82  A    between atoms: _196  and  _197
REMARK   83  A    between atoms: _196  and  _199
REMARK   84  A    between atoms: _199  and  _200
REMARK   85  A    between atoms: _203  and  _205
REMARK   86  A    between atoms: _205  and  _206
REMARK   87  A    between atoms: _205  and  _208
REMARK   88  A    between atoms: _210  and  _212
REMARK   89  A    between atoms: _212  and  _213
REMARK   90  A    between atoms: _212  and  _215
REMARK   91  A    between atoms: _215  and  _216
REMARK   92  A    between atoms: _216  and  _217
REMARK   93  A    between atoms: _217  and  _218
REMARK   94  A    between atoms: _227  and  _229
REMARK   95  A    between atoms: _229  and  _230
REMARK   96  A    between atoms: _229  and  _232
REMARK   97  A    between atoms: _232  and  _233
REMARK   98  A    between atoms: _233  and  _234
REMARK   99  A    between atoms: _234  and  _235
REMARK  100  A    between atoms: _235  and  _236
REMARK  101  A    between atoms: _240  and  _242
REMARK  102  A    between atoms: _242  and  _243
REMARK  103  A    between atoms: _242  and  _245
REMARK  104  A    between atoms: _245  and  _246
REMARK  105  A    between atoms: _249  and  _251
REMARK  106  A    between atoms: _251  and  _252
REMARK  107  A    between atoms: _251  and  _254
REMARK  108  A    between atoms: _254  and  _255
REMARK  109  A    between atoms: _258  and  _260
REMARK  110  A    between atoms: _260  and  _261
REMARK  111  A    between atoms: _260  and  _263
REMARK  112  A    between atoms: _266  and  _268
REMARK  113  A    between atoms: _268  and  _269
REMARK  114  A    between atoms: _272  and  _274
REMARK  115  A    between atoms: _274  and  _275
REMARK  116  A    between atoms: _274  and  _277
REMARK  117  A    between atoms: _280  and  _282
REMARK  118  A    between atoms: _282  and  _283
REMARK  119  A    between atoms: _282  and  _285
REMARK  120  A    between atoms: _285  and  _286
REMARK  121  A    between atoms: _291  and  _293
REMARK  122  A    between atoms: _293  and  _294
REMARK  123  A    between atoms: _293  and  _296
REMARK  124  A    between atoms: _296  and  _297
REMARK  125  A    between atoms: _303  and  _305
REMARK  126  A    between atoms: _305  and  _306
REMARK  127  A    between atoms: _305  and  _308
REMARK  128  A    between atoms: _308  and  _309
REMARK  129  A    between atoms: _312  and  _314
REMARK  130  A    between atoms: _314  and  _315
REMARK  131  A    between atoms: _318  and  _320
REMARK  132  A    between atoms: _320  and  _321
REMARK  133  A    between atoms: _320  and  _323
REMARK  134  A    between atoms: _323  and  _324
REMARK  135  A    between atoms: _326  and  _328
REMARK  136  A    between atoms: _328  and  _329
REMARK  137  A    between atoms: _328  and  _331
REMARK                            x       y       z     vdW  Elec       q    Type
REMARK                         _______ _______ _______ _____ _____    ______ ____
ROOT
ATOM      1  C   ASP A   3      33.243  -6.153   4.705  0.00  0.00    +0.241 C 
ATOM      2  N   CYS A   4      34.216  -5.249   4.789  0.00  0.00    -0.296 N 
ATOM      3  H   CYS A   4      34.250  -4.628   5.623  0.00  0.00    +0.150 HD
ATOM      4  O   ASP A   3      33.046  -6.872   3.716  0.00  0.00    -0.273 OA
ENDROOT
BRANCH   2   5
ATOM      5  CA  CYS A   4      35.234  -5.095   3.761  0.00  0.00    +0.160 C 
BRANCH   5   6
ATOM      6  C   CYS A   4      36.593  -5.410   4.346  0.00  0.00    +0.242 C 
ATOM      7  O   CYS A   4      37.016  -4.780   5.310  0.00  0.00    -0.273 OA
ATOM      8  N   ARG A   5      37.278  -6.380   3.747  0.00  0.00    -0.298 N 
ATOM      9  H   ARG A   5      36.868  -6.849   2.915  0.00  0.00    +0.150 HD
BRANCH   8  10
ATOM     10  CA  ARG A   5      38.585  -6.802   4.224  0.00  0.00    +0.137 C 
BRANCH  10  11
ATOM     11  C   ARG A   5      39.574  -6.774   3.074  0.00  0.00    +0.227 C 
ATOM     12  O   ARG A   5      39.329  -7.392   2.033  0.00  0.00    -0.286 OA
ENDBRANCH  10  11
BRANCH  10  13
ATOM     13  CB  ARG A   5      38.503  -8.212   4.810  0.00  0.00    +0.031 C 
BRANCH  13  14
ATOM     14  CG  ARG A   5      39.715  -8.623   5.635  0.00  0.00    +0.045 C 
BRANCH  14  15
ATOM     15  CD  ARG A   5      39.381  -9.793   6.550  0.00  0.00    +0.174 C 
BRANCH  15  16
ATOM     16  NE  ARG A   5      38.248  -9.485   7.423  0.00  0.00    -0.265 N 
ATOM     17  CZ  ARG A   5      38.343  -9.171   8.713  0.00  0.00    +0.342 C 
ATOM     18  NH2 ARG A   5      37.244  -8.903   9.405  0.00  0.00    -0.292 N 
ATOM     19 HH21 ARG A   5      37.311  -8.657  10.413  0.00  0.00    +0.255 HD
ATOM     20 HH22 ARG A   5      36.315  -8.939   8.939  0.00  0.00    +0.255 HD
ATOM     21  NH1 ARG A   5      39.527  -9.132   9.317  0.00  0.00    -0.292 N 
ATOM     22 HH11 ARG A   5      39.588  -8.885  10.325  0.00  0.00    +0.255 HD
ATOM     23 HH12 ARG A   5      40.392  -9.348   8.781  0.00  0.00    +0.255 HD
ATOM     24  HE  ARG A   5      37.297  -9.514   7.004  0.00  0.00    +0.259 HD
ENDBRANCH  15  16
ENDBRANCH  14  15
ENDBRANCH  13  14
ENDBRANCH  10  13
ENDBRANCH   8  10
ENDBRANCH   5   6
BRANCH   5  25
ATOM     25  CB  CYS A   4      35.236  -3.672   3.209  0.00  0.00    +0.098 C 
ATOM     26  SG  CYS A   4      33.650  -3.148   2.524  0.00  0.00    -0.080 S 
ENDBRANCH   5  25
ENDBRANCH   2   5
BRANCH   1  27
ATOM     27  CA  ASP A   3      32.365  -6.274   5.935  0.00  0.00    +0.160 C 
BRANCH  27  30
ATOM     28  C   THR A   2      30.201  -5.313   5.384  0.00  0.00    +0.243 C 
ATOM     29  O   THR A   2      30.547  -4.182   5.731  0.00  0.00    -0.273 OA
ATOM     30  N   ASP A   3      30.968  -6.388   5.531  0.00  0.00    -0.296 N 
ATOM     31  H   ASP A   3      30.564  -7.330   5.354  0.00  0.00    +0.150 HD
BRANCH  28  32
ATOM     32  CA  THR A   2      28.820  -5.546   4.793  0.00  0.00    +0.176 C 
BRANCH  32  34
ATOM     33  C   ILE A   1      26.823  -5.782   6.148  0.00  0.00    +0.238 C 
ATOM     34  N   THR A   2      27.845  -5.039   5.743  0.00  0.00    -0.295 N 
ATOM     35  H   THR A   2      27.950  -4.073   6.114  0.00  0.00    +0.150 HD
ATOM     36  O   ILE A   1      26.553  -6.879   5.664  0.00  0.00    -0.274 OA
BRANCH  33  37
ATOM     37  CA  ILE A   1      25.985  -5.202   7.278  0.00  0.00    +0.145 C 
BRANCH  37  38
ATOM     38  CB  ILE A   1      26.765  -5.355   8.622  0.00  0.00    +0.025 C 
ATOM     39  CG2 ILE A   1      25.974  -4.751   9.772  0.00  0.00    +0.002 C 
BRANCH  38  40
ATOM     40  CG1 ILE A   1      27.118  -6.824   8.904  0.00  0.00    +0.002 C 
ATOM     41  CD1 ILE A   1      28.071  -7.033  10.081  0.00  0.00    +0.000 C 
ENDBRANCH  38  40
ENDBRANCH  37  38
BRANCH  37  42
ATOM     42  N   ILE A   1      24.659  -5.830   7.323  0.00  0.00    -0.238 NA
ATOM     43  H   ILE A   1      24.577  -6.858   7.187  0.00  0.00    +0.142 HD
ENDBRANCH  37  42
ENDBRANCH  33  37
ENDBRANCH  32  34
BRANCH  32  44
ATOM     44  CB  THR A   2      28.708  -4.844   3.430  0.00  0.00    +0.137 C 
ATOM     45  CG2 THR A   2      29.730  -5.413   2.455  0.00  0.00    +0.034 C 
BRANCH  44  46
ATOM     46  OG1 THR A   2      27.392  -5.039   2.898  0.00  0.00    -0.382 OA
ATOM     47  HG1 THR A   2      26.725  -4.657   3.522  0.00  0.00    +0.210 HD
ENDBRANCH  44  46
ENDBRANCH  32  44
ENDBRANCH  28  32
ENDBRANCH  27  30
BRANCH  27  48
ATOM     48  CB  ASP A   3      32.815  -7.482   6.760  0.00  0.00    +0.143 C 
BRANCH  48  49
ATOM     49  CG  ASP A   3      32.203  -7.506   8.143  0.00  0.00    +0.367 C 
ATOM     50  OD2 ASP A   3      32.083  -6.436   8.778  0.00  0.00    -0.246 OA
ATOM     51  OD1 ASP A   3      31.853  -8.614   8.607  0.00  0.00    -0.246 OA
ENDBRANCH  48  49
ENDBRANCH  27  48
ENDBRANCH   1  27
TORSDOF 21
REMARK  Name = ../refined-set-2016/3d6q/3d6q_pocket.pdb
REMARK  137 active torsions:
REMARK  status: ('A' for Active; 'I' for Inactive)
REMARK    1  A    between atoms: _1  and  _3
REMARK    2  A    between atoms: _3  and  _4
REMARK    3  A    between atoms: _3  and  _6
REMARK    4  A    between atoms: _6  and  _7
REMARK    5  A    between atoms: _7  and  _8
REMARK    6  A    between atoms: _8  and  _9
REMARK    7  A    between atoms: _9  and  _10
REMARK    8  A    between atoms: _14  and  _16
REMARK    9  A    between atoms: _16  and  _17
REMARK   10  A    between atoms: _16  and  _19
REMARK   11  A    between atoms: _19  and  _20
REMARK   12  A    between atoms: _26  and  _28
REMARK   13  A    between atoms: _28  and  _29
REMARK   14  A    between atoms: _28  and  _31
REMARK   15  A    between atoms: _31  and  _32
REMARK   16  A    between atoms: _32  and  _33
REMARK   17  A    between atoms: _38  and  _40
REMARK   18  A    between atoms: _40  and  _41
REMARK   19  A    between atoms: _40  and  _43
REMARK   20  A    between atoms: _43  and  _44
REMARK   21  A    between atoms: _49  and  _51
REMARK   22  A    between atoms: _51  and  _52
REMARK   23  A    between atoms: _51  and  _54
REMARK   24  A    between atoms: _54  and  _55
REMARK   25  A    between atoms: _55  and  _56
REMARK   26  A    between atoms: _58  and  _60
REMARK   27  A    between atoms: _60  and  _61
REMARK   28  A    between atoms: _60  and  _63
REMARK   29  A    between atoms: _63  and  _64
REMARK   30  A    between atoms: _67  and  _69
REMARK   31  A    between atoms: _69  and  _70
REMARK   32  A    between atoms: _69  and  _72
REMARK   33  A    between atoms: _72  and  _73
REMARK   34  A    between atoms: _73  and  _74
REMARK   35  A    between atoms: _74  and  _75
REMARK   36  A    between atoms: _84  and  _86
REMARK   37  A    between atoms: _86  and  _87
REMARK   38  A    between atoms: _86  and  _89
REMARK   39  A    between atoms: _89  and  _90
REMARK   40  A    between atoms: _90  and  _91
REMARK   41  A    between atoms: _91  and  _92
REMARK   42  A    between atoms: _92  and  _93
REMARK   43  A    between atoms: _98  and  _99
REMARK   44  A    between atoms: _104  and  _106
REMARK   45  A    between atoms: _106  and  _107
REMARK   46  A    between atoms: _106  and  _109
REMARK   47  A    between atoms: _112  and  _114
REMARK   48  A    between atoms: _114  and  _115
REMARK   49  A    between atoms: _114  and  _117
REMARK   50  A    between atoms: _117  and  _118
REMARK   51  A    between atoms: _123  and  _125
REMARK   52  A    between atoms: _125  and  _126
REMARK   53  A    between atoms: _125  and  _128
REMARK   54  A    between atoms: _128  and  _129
REMARK   55  A    between atoms: _132  and  _134
REMARK   56  A    between atoms: _134  and  _135
REMARK   57  A    between atoms: _134  and  _137
REMARK   58  A    between atoms: _137  and  _138
REMARK   59  A    between atoms: _144  and  _146
REMARK   60  A    between atoms: _146  and  _147
REMARK   61  A    between atoms: _146  and  _149
REMARK   62  A    between atoms: _152  and  _154
REMARK   63  A    between atoms: _154  and  _155
REMARK   64  A    between atoms: _154  and  _157
REMARK   65  A    between atoms: _157  and  _158
REMARK   66  A    between atoms: _158  and  _159
REMARK   67  A    between atoms: _159  and  _160
REMARK   68  A    between atoms: _160  and  _161
REMARK   69  A    between atoms: _165  and  _167
REMARK   70  A    between atoms: _167  and  _168
REMARK   71  A    between atoms: _167  and  _170
REMARK   72  A    between atoms: _170  and  _171
REMARK   73  A    between atoms: _176  and  _178
REMARK   74  A    between atoms: _178  and  _179
REMARK   75  A    between atoms: _178  and  _181
REMARK   76  A    between atoms: _181  and  _182
REMARK   77  A    between atoms: _185  and  _187
REMARK   78  A    between atoms: _187  and  _188
REMARK   79  A    between atoms: _187  and  _190
REMARK   80  A    between atoms: _190  and  _191
REMARK   81  A    between atoms: _194  and  _196
REMARK   82  A    between atoms: _196  and  _197
REMARK   83  A    between atoms: _196  and  _199
REMARK   84  A    between atoms: _199  and  _200
REMARK   85  A    between atoms: _203  and  _205
REMARK   86  A    between atoms: _205  and  _206
REMARK   87  A    between atoms: _205  and  _208
REMARK   88  A    between atoms: _210  and  _212
REMARK   89  A    between atoms: _212  and  _213
REMARK   90  A    between atoms: _212  and  _215
REMARK   91  A    between atoms: _215  and  _216
REMARK   92  A    between atoms: _216  and  _217
REMARK   93  A    between atoms: _217  and  _218
REMARK   94  A    between atoms: _227  and  _229
REMARK   95  A    between atoms: _229  and  _230
REMARK   96  A    between atoms: _229  and  _232
REMARK   97  A    between atoms: _232  and  _233
REMARK   98  A    between atoms: _233  and  _234
REMARK   99  A    between atoms: _234  and  _235
REMARK  100  A    between atoms: _235  and  _236
REMARK  101  A    between atoms: _240  and  _242
REMARK  102  A    between atoms: _242  and  _243
REMARK  103  A    between atoms: _242  and  _245
REMARK  104  A    between atoms: _245  and  _246
REMARK  105  A    between atoms: _249  and  _251
REMARK  106  A    between atoms: _251  and  _252
REMARK  107  A    between atoms: _251  and  _254
REMARK  108  A    between atoms: _254  and  _255
REMARK  109  A    between atoms: _258  and  _260
REMARK  110  A    between atoms: _260  and  _261
REMARK  111  A    between atoms: _260  and  _263
REMARK  112  A    between atoms: _266  and  _268
REMARK  113  A    between atoms: _268  and  _269
REMARK  114  A    between atoms: _272  and  _274
REMARK  115  A    between atoms: _274  and  _275
REMARK  116  A    between atoms: _274  and  _277
REMARK  117  A    between atoms: _280  and  _282
REMARK  118  A    between atoms: _282  and  _283
REMARK  119  A    between atoms: _282  and  _285
REMARK  120  A    between atoms: _285  and  _286
REMARK  121  A    between atoms: _291  and  _293
REMARK  122  A    between atoms: _293  and  _294
REMARK  123  A    between atoms: _293  and  _296
REMARK  124  A    between atoms: _296  and  _297
REMARK  125  A    between atoms: _303  and  _305
REMARK  126  A    between atoms: _305  and  _306
REMARK  127  A    between atoms: _305  and  _308
REMARK  128  A    between atoms: _308  and  _309
REMARK  129  A    between atoms: _312  and  _314
REMARK  130  A    between atoms: _314  and  _315
REMARK  131  A    between atoms: _318  and  _320
REMARK  132  A    between atoms: _320  and  _321
REMARK  133  A    between atoms: _320  and  _323
REMARK  134  A    between atoms: _323  and  _324
REMARK  135  A    between atoms: _326  and  _328
REMARK  136  A    between atoms: _328  and  _329
REMARK  137  A    between atoms: _328  and  _331
REMARK                            x       y       z     vdW  Elec       q    Type
REMARK                         _______ _______ _______ _____ _____    ______ ____
ROOT
ATOM      1  CG  LYS A   1      26.760 -11.002  11.909  0.00  0.00    -0.000 C 
ENDROOT
BRANCH   1   2
ATOM      2  CB  LYS A   1      26.243  -9.717  12.555  0.00  0.00    +0.025 C 
BRANCH   2   3
ATOM      3  CA  LYS A   1      24.719  -9.658  12.721  0.00  0.00    +0.133 C 
BRANCH   3   4
ATOM      4  N   LYS A   1      24.083  -9.485  11.420  0.00  0.00    -0.239 NA
ATOM      5  H   LYS A   1      23.993  -8.524  11.032  0.00  0.00    +0.142 HD
ENDBRANCH   3   4
BRANCH   3   6
ATOM      6  C   LYS A   1      24.354  -8.521  13.668  0.00  0.00    +0.224 C 
ATOM      7  O   LYS A   1      23.873  -7.468  13.235  0.00  0.00    -0.287 OA
ENDBRANCH   3   6
ENDBRANCH   2   3
ENDBRANCH   1   2
BRANCH   1   8
ATOM      8  CD  LYS A   1      28.268 -10.962  11.685  0.00  0.00    -0.024 C 
BRANCH   8   9
ATOM      9  CE  LYS A   1      29.033 -11.354  12.941  0.00  0.00    -0.086 C 
BRANCH   9  10
ATOM     10  NZ  LYS A   1      30.502 -11.415  12.695  0.00  0.00    +0.380 N 
ATOM     11  HZ1 LYS A   1      30.988 -11.685  13.574  0.00  0.00    -0.089 HD
ATOM     12  HZ2 LYS A   1      30.839 -10.482  12.383  0.00  0.00    -0.089 HD
ATOM     13  HZ3 LYS A   1      30.700 -12.121  11.957  0.00  0.00    -0.089 HD
ENDBRANCH   9  10
ENDBRANCH   8   9
ENDBRANCH   1   8
TORSDOF 7
REMARK  Name = ../refined-set-2016/3d6q/3d6q_pocket.pdb
REMARK  137 active torsions:
REMARK  status: ('A' for Active; 'I' for Inactive)
REMARK    1  A    between atoms: _1  and  _3
REMARK    2  A    between atoms: _3  and  _4
REMARK    3  A    between atoms: _3  and  _6
REMARK    4  A    between atoms: _6  and  _7
REMARK    5  A    between atoms: _7  and  _8
REMARK    6  A    between atoms: _8  and  _9
REMARK    7  A    between atoms: _9  and  _10
REMARK    8  A    between atoms: _14  and  _16
REMARK    9  A    between atoms: _16  and  _17
REMARK   10  A    between atoms: _16  and  _19
REMARK   11  A    between atoms: _19  and  _20
REMARK   12  A    between atoms: _26  and  _28
REMARK   13  A    between atoms: _28  and  _29
REMARK   14  A    between atoms: _28  and  _31
REMARK   15  A    between atoms: _31  and  _32
REMARK   16  A    between atoms: _32  and  _33
REMARK   17  A    between atoms: _38  and  _40
REMARK   18  A    between atoms: _40  and  _41
REMARK   19  A    between atoms: _40  and  _43
REMARK   20  A    between atoms: _43  and  _44
REMARK   21  A    between atoms: _49  and  _51
REMARK   22  A    between atoms: _51  and  _52
REMARK   23  A    between atoms: _51  and  _54
REMARK   24  A    between atoms: _54  and  _55
REMARK   25  A    between atoms: _55  and  _56
REMARK   26  A    between atoms: _58  and  _60
REMARK   27  A    between atoms: _60  and  _61
REMARK   28  A    between atoms: _60  and  _63
REMARK   29  A    between atoms: _63  and  _64
REMARK   30  A    between atoms: _67  and  _69
REMARK   31  A    between atoms: _69  and  _70
REMARK   32  A    between atoms: _69  and  _72
REMARK   33  A    between atoms: _72  and  _73
REMARK   34  A    between atoms: _73  and  _74
REMARK   35  A    between atoms: _74  and  _75
REMARK   36  A    between atoms: _84  and  _86
REMARK   37  A    between atoms: _86  and  _87
REMARK   38  A    between atoms: _86  and  _89
REMARK   39  A    between atoms: _89  and  _90
REMARK   40  A    between atoms: _90  and  _91
REMARK   41  A    between atoms: _91  and  _92
REMARK   42  A    between atoms: _92  and  _93
REMARK   43  A    between atoms: _98  and  _99
REMARK   44  A    between atoms: _104  and  _106
REMARK   45  A    between atoms: _106  and  _107
REMARK   46  A    between atoms: _106  and  _109
REMARK   47  A    between atoms: _112  and  _114
REMARK   48  A    between atoms: _114  and  _115
REMARK   49  A    between atoms: _114  and  _117
REMARK   50  A    between atoms: _117  and  _118
REMARK   51  A    between atoms: _123  and  _125
REMARK   52  A    between atoms: _125  and  _126
REMARK   53  A    between atoms: _125  and  _128
REMARK   54  A    between atoms: _128  and  _129
REMARK   55  A    between atoms: _132  and  _134
REMARK   56  A    between atoms: _134  and  _135
REMARK   57  A    between atoms: _134  and  _137
REMARK   58  A    between atoms: _137  and  _138
REMARK   59  A    between atoms: _144  and  _146
REMARK   60  A    between atoms: _146  and  _147
REMARK   61  A    between atoms: _146  and  _149
REMARK   62  A    between atoms: _152  and  _154
REMARK   63  A    between atoms: _154  and  _155
REMARK   64  A    between atoms: _154  and  _157
REMARK   65  A    between atoms: _157  and  _158
REMARK   66  A    between atoms: _158  and  _159
REMARK   67  A    between atoms: _159  and  _160
REMARK   68  A    between atoms: _160  and  _161
REMARK   69  A    between atoms: _165  and  _167
REMARK   70  A    between atoms: _167  and  _168
REMARK   71  A    between atoms: _167  and  _170
REMARK   72  A    between atoms: _170  and  _171
REMARK   73  A    between atoms: _176  and  _178
REMARK   74  A    between atoms: _178  and  _179
REMARK   75  A    between atoms: _178  and  _181
REMARK   76  A    between atoms: _181  and  _182
REMARK   77  A    between atoms: _185  and  _187
REMARK   78  A    between atoms: _187  and  _188
REMARK   79  A    between atoms: _187  and  _190
REMARK   80  A    between atoms: _190  and  _191
REMARK   81  A    between atoms: _194  and  _196
REMARK   82  A    between atoms: _196  and  _197
REMARK   83  A    between atoms: _196  and  _199
REMARK   84  A    between atoms: _199  and  _200
REMARK   85  A    between atoms: _203  and  _205
REMARK   86  A    between atoms: _205  and  _206
REMARK   87  A    between atoms: _205  and  _208
REMARK   88  A    between atoms: _210  and  _212
REMARK   89  A    between atoms: _212  and  _213
REMARK   90  A    between atoms: _212  and  _215
REMARK   91  A    between atoms: _215  and  _216
REMARK   92  A    between atoms: _216  and  _217
REMARK   93  A    between atoms: _217  and  _218
REMARK   94  A    between atoms: _227  and  _229
REMARK   95  A    between atoms: _229  and  _230
REMARK   96  A    between atoms: _229  and  _232
REMARK   97  A    between atoms: _232  and  _233
REMARK   98  A    between atoms: _233  and  _234
REMARK   99  A    between atoms: _234  and  _235
REMARK  100  A    between atoms: _235  and  _236
REMARK  101  A    between atoms: _240  and  _242
REMARK  102  A    between atoms: _242  and  _243
REMARK  103  A    between atoms: _242  and  _245
REMARK  104  A    between atoms: _245  and  _246
REMARK  105  A    between atoms: _249  and  _251
REMARK  106  A    between atoms: _251  and  _252
REMARK  107  A    between atoms: _251  and  _254
REMARK  108  A    between atoms: _254  and  _255
REMARK  109  A    between atoms: _258  and  _260
REMARK  110  A    between atoms: _260  and  _261
REMARK  111  A    between atoms: _260  and  _263
REMARK  112  A    between atoms: _266  and  _268
REMARK  113  A    between atoms: _268  and  _269
REMARK  114  A    between atoms: _272  and  _274
REMARK  115  A    between atoms: _274  and  _275
REMARK  116  A    between atoms: _274  and  _277
REMARK  117  A    between atoms: _280  and  _282
REMARK  118  A    between atoms: _282  and  _283
REMARK  119  A    between atoms: _282  and  _285
REMARK  120  A    between atoms: _285  and  _286
REMARK  121  A    between atoms: _291  and  _293
REMARK  122  A    between atoms: _293  and  _294
REMARK  123  A    between atoms: _293  and  _296
REMARK  124  A    between atoms: _296  and  _297
REMARK  125  A    between atoms: _303  and  _305
REMARK  126  A    between atoms: _305  and  _306
REMARK  127  A    between atoms: _305  and  _308
REMARK  128  A    between atoms: _308  and  _309
REMARK  129  A    between atoms: _312  and  _314
REMARK  130  A    between atoms: _314  and  _315
REMARK  131  A    between atoms: _318  and  _320
REMARK  132  A    between atoms: _320  and  _321
REMARK  133  A    between atoms: _320  and  _323
REMARK  134  A    between atoms: _323  and  _324
REMARK  135  A    between atoms: _326  and  _328
REMARK  136  A    between atoms: _328  and  _329
REMARK  137  A    between atoms: _328  and  _331
REMARK                            x       y       z     vdW  Elec       q    Type
REMARK                         _______ _______ _______ _____ _____    ______ ____
ROOT
ATOM      1  CA  ILE A   2      28.671  -3.164  18.584  0.00  0.00    +0.148 C 
ENDROOT
BRANCH   1   4
ATOM      2  C   ILE A   1      26.945  -4.100  17.144  0.00  0.00    +0.238 C 
ATOM      3  O   ILE A   1      26.087  -4.044  18.024  0.00  0.00    -0.274 OA
ATOM      4  N   ILE A   2      28.219  -3.776  17.346  0.00  0.00    -0.297 N 
ATOM      5  H   ILE A   2      28.913  -3.966  16.595  0.00  0.00    +0.150 HD
BRANCH   2   6
ATOM      6  CA  ILE A   1      26.601  -4.592  15.743  0.00  0.00    +0.145 C 
BRANCH   6   7
ATOM      7  N   ILE A   1      25.442  -5.505  15.779  0.00  0.00    -0.238 NA
ATOM      8  H   ILE A   1      24.474  -5.127  15.738  0.00  0.00    +0.142 HD
ENDBRANCH   6   7
BRANCH   6   9
ATOM      9  CB  ILE A   1      26.406  -3.387  14.777  0.00  0.00    +0.025 C 
ATOM     10  CG2 ILE A   1      26.118  -3.896  13.340  0.00  0.00    +0.002 C 
BRANCH   9  11
ATOM     11  CG1 ILE A   1      25.327  -2.421  15.299  0.00  0.00    +0.002 C 
ATOM     12  CD1 ILE A   1      25.270  -1.073  14.547  0.00  0.00    +0.000 C 
ENDBRANCH   9  11
ENDBRANCH   6   9
ENDBRANCH   2   6
ENDBRANCH   1   4
BRANCH   1  13
ATOM     13  C   ILE A   2      29.356  -1.846  18.221  0.00  0.00    +0.241 C 
ATOM     14  N   VAL A   3      28.834  -0.749  18.759  0.00  0.00    -0.297 N 
ATOM     15  H   VAL A   3      28.015  -0.839  19.393  0.00  0.00    +0.150 HD
ATOM     16  O   ILE A   2      30.334  -1.833  17.473  0.00  0.00    -0.273 OA
BRANCH  14  17
ATOM     17  CA  VAL A   3      29.381   0.589  18.484  0.00  0.00    +0.149 C 
BRANCH  17  18
ATOM     18  C   VAL A   3      29.743   1.301  19.785  0.00  0.00    +0.241 C 
ATOM     19  O   VAL A   3      29.185   1.004  20.830  0.00  0.00    -0.273 OA
ATOM     20  N   ALA A   4      30.717   2.203  19.716  0.00  0.00    -0.298 N 
ATOM     21  H   ALA A   4      31.258   2.294  18.833  0.00  0.00    +0.150 HD
BRANCH  20  22
ATOM     22  CA  ALA A   4      31.050   3.071  20.846  0.00  0.00    +0.137 C 
ATOM     23  CB  ALA A   4      32.543   3.328  20.908  0.00  0.00    +0.030 C 
BRANCH  22  24
ATOM     24  C   ALA A   4      30.311   4.379  20.661  0.00  0.00    +0.227 C 
ATOM     25  O   ALA A   4      30.292   4.932  19.555  0.00  0.00    -0.286 OA
ENDBRANCH  22  24
ENDBRANCH  20  22
ENDBRANCH  17  18
BRANCH  17  26
ATOM     26  CB  VAL A   3      28.382   1.467  17.679  0.00  0.00    +0.027 C 
ATOM     27  CG2 VAL A   3      27.072   1.653  18.460  0.00  0.00    +0.002 C 
ATOM     28  CG1 VAL A   3      28.103   0.854  16.297  0.00  0.00    +0.002 C 
ENDBRANCH  17  26
ENDBRANCH  14  17
ENDBRANCH   1  13
BRANCH   1  29
ATOM     29  CB  ILE A   2      29.643  -4.074  19.378  0.00  0.00    +0.027 C 
ATOM     30  CG2 ILE A   2      30.163  -3.326  20.620  0.00  0.00    +0.002 C 
BRANCH  29  31
ATOM     31  CG1 ILE A   2      28.966  -5.407  19.739  0.00  0.00    +0.002 C 
ATOM     32  CD1 ILE A   2      29.874  -6.425  20.442  0.00  0.00    +0.000 C 
ENDBRANCH  29  31
ENDBRANCH   1  29
TORSDOF 13
REMARK  Name = ../refined-set-2016/3d6q/3d6q_pocket.pdb
REMARK  137 active torsions:
REMARK  status: ('A' for Active; 'I' for Inactive)
REMARK    1  A    between atoms: _1  and  _3
REMARK    2  A    between atoms: _3  and  _4
REMARK    3  A    between atoms: _3  and  _6
REMARK    4  A    between atoms: _6  and  _7
REMARK    5  A    between atoms: _7  and  _8
REMARK    6  A    between atoms: _8  and  _9
REMARK    7  A    between atoms: _9  and  _10
REMARK    8  A    between atoms: _14  and  _16
REMARK    9  A    between atoms: _16  and  _17
REMARK   10  A    between atoms: _16  and  _19
REMARK   11  A    between atoms: _19  and  _20
REMARK   12  A    between atoms: _26  and  _28
REMARK   13  A    between atoms: _28  and  _29
REMARK   14  A    between atoms: _28  and  _31
REMARK   15  A    between atoms: _31  and  _32
REMARK   16  A    between atoms: _32  and  _33
REMARK   17  A    between atoms: _38  and  _40
REMARK   18  A    between atoms: _40  and  _41
REMARK   19  A    between atoms: _40  and  _43
REMARK   20  A    between atoms: _43  and  _44
REMARK   21  A    between atoms: _49  and  _51
REMARK   22  A    between atoms: _51  and  _52
REMARK   23  A    between atoms: _51  and  _54
REMARK   24  A    between atoms: _54  and  _55
REMARK   25  A    between atoms: _55  and  _56
REMARK   26  A    between atoms: _58  and  _60
REMARK   27  A    between atoms: _60  and  _61
REMARK   28  A    between atoms: _60  and  _63
REMARK   29  A    between atoms: _63  and  _64
REMARK   30  A    between atoms: _67  and  _69
REMARK   31  A    between atoms: _69  and  _70
REMARK   32  A    between atoms: _69  and  _72
REMARK   33  A    between atoms: _72  and  _73
REMARK   34  A    between atoms: _73  and  _74
REMARK   35  A    between atoms: _74  and  _75
REMARK   36  A    between atoms: _84  and  _86
REMARK   37  A    between atoms: _86  and  _87
REMARK   38  A    between atoms: _86  and  _89
REMARK   39  A    between atoms: _89  and  _90
REMARK   40  A    between atoms: _90  and  _91
REMARK   41  A    between atoms: _91  and  _92
REMARK   42  A    between atoms: _92  and  _93
REMARK   43  A    between atoms: _98  and  _99
REMARK   44  A    between atoms: _104  and  _106
REMARK   45  A    between atoms: _106  and  _107
REMARK   46  A    between atoms: _106  and  _109
REMARK   47  A    between atoms: _112  and  _114
REMARK   48  A    between atoms: _114  and  _115
REMARK   49  A    between atoms: _114  and  _117
REMARK   50  A    between atoms: _117  and  _118
REMARK   51  A    between atoms: _123  and  _125
REMARK   52  A    between atoms: _125  and  _126
REMARK   53  A    between atoms: _125  and  _128
REMARK   54  A    between atoms: _128  and  _129
REMARK   55  A    between atoms: _132  and  _134
REMARK   56  A    between atoms: _134  and  _135
REMARK   57  A    between atoms: _134  and  _137
REMARK   58  A    between atoms: _137  and  _138
REMARK   59  A    between atoms: _144  and  _146
REMARK   60  A    between atoms: _146  and  _147
REMARK   61  A    between atoms: _146  and  _149
REMARK   62  A    between atoms: _152  and  _154
REMARK   63  A    between atoms: _154  and  _155
REMARK   64  A    between atoms: _154  and  _157
REMARK   65  A    between atoms: _157  and  _158
REMARK   66  A    between atoms: _158  and  _159
REMARK   67  A    between atoms: _159  and  _160
REMARK   68  A    between atoms: _160  and  _161
REMARK   69  A    between atoms: _165  and  _167
REMARK   70  A    between atoms: _167  and  _168
REMARK   71  A    between atoms: _167  and  _170
REMARK   72  A    between atoms: _170  and  _171
REMARK   73  A    between atoms: _176  and  _178
REMARK   74  A    between atoms: _178  and  _179
REMARK   75  A    between atoms: _178  and  _181
REMARK   76  A    between atoms: _181  and  _182
REMARK   77  A    between atoms: _185  and  _187
REMARK   78  A    between atoms: _187  and  _188
REMARK   79  A    between atoms: _187  and  _190
REMARK   80  A    between atoms: _190  and  _191
REMARK   81  A    between atoms: _194  and  _196
REMARK   82  A    between atoms: _196  and  _197
REMARK   83  A    between atoms: _196  and  _199
REMARK   84  A    between atoms: _199  and  _200
REMARK   85  A    between atoms: _203  and  _205
REMARK   86  A    between atoms: _205  and  _206
REMARK   87  A    between atoms: _205  and  _208
REMARK   88  A    between atoms: _210  and  _212
REMARK   89  A    between atoms: _212  and  _213
REMARK   90  A    between atoms: _212  and  _215
REMARK   91  A    between atoms: _215  and  _216
REMARK   92  A    between atoms: _216  and  _217
REMARK   93  A    between atoms: _217  and  _218
REMARK   94  A    between atoms: _227  and  _229
REMARK   95  A    between atoms: _229  and  _230
REMARK   96  A    between atoms: _229  and  _232
REMARK   97  A    between atoms: _232  and  _233
REMARK   98  A    between atoms: _233  and  _234
REMARK   99  A    between atoms: _234  and  _235
REMARK  100  A    between atoms: _235  and  _236
REMARK  101  A    between atoms: _240  and  _242
REMARK  102  A    between atoms: _242  and  _243
REMARK  103  A    between atoms: _242  and  _245
REMARK  104  A    between atoms: _245  and  _246
REMARK  105  A    between atoms: _249  and  _251
REMARK  106  A    between atoms: _251  and  _252
REMARK  107  A    between atoms: _251  and  _254
REMARK  108  A    between atoms: _254  and  _255
REMARK  109  A    between atoms: _258  and  _260
REMARK  110  A    between atoms: _260  and  _261
REMARK  111  A    between atoms: _260  and  _263
REMARK  112  A    between atoms: _266  and  _268
REMARK  113  A    between atoms: _268  and  _269
REMARK  114  A    between atoms: _272  and  _274
REMARK  115  A    between atoms: _274  and  _275
REMARK  116  A    between atoms: _274  and  _277
REMARK  117  A    between atoms: _280  and  _282
REMARK  118  A    between atoms: _282  and  _283
REMARK  119  A    between atoms: _282  and  _285
REMARK  120  A    between atoms: _285  and  _286
REMARK  121  A    between atoms: _291  and  _293
REMARK  122  A    between atoms: _293  and  _294
REMARK  123  A    between atoms: _293  and  _296
REMARK  124  A    between atoms: _296  and  _297
REMARK  125  A    between atoms: _303  and  _305
REMARK  126  A    between atoms: _305  and  _306
REMARK  127  A    between atoms: _305  and  _308
REMARK  128  A    between atoms: _308  and  _309
REMARK  129  A    between atoms: _312  and  _314
REMARK  130  A    between atoms: _314  and  _315
REMARK  131  A    between atoms: _318  and  _320
REMARK  132  A    between atoms: _320  and  _321
REMARK  133  A    between atoms: _320  and  _323
REMARK  134  A    between atoms: _323  and  _324
REMARK  135  A    between atoms: _326  and  _328
REMARK  136  A    between atoms: _328  and  _329
REMARK  137  A    between atoms: _328  and  _331
REMARK                            x       y       z     vdW  Elec       q    Type
REMARK                         _______ _______ _______ _____ _____    ______ ____
ROOT
ATOM      1  C   PHE A   3      33.346  -0.288  15.661  0.00  0.00    +0.241 C 
ATOM      2  N   ASP A   4      32.881  -1.027  16.670  0.00  0.00    -0.297 N 
ATOM      3  H   ASP A   4      31.871  -0.992  16.914  0.00  0.00    +0.150 HD
ATOM      4  O   PHE A   3      34.496  -0.387  15.241  0.00  0.00    -0.273 OA
ENDROOT
BRANCH   2   5
ATOM      5  CA  ASP A   4      33.788  -1.889  17.438  0.00  0.00    +0.160 C 
BRANCH   5   6
ATOM      6  C   ASP A   4      33.878  -3.315  16.910  0.00  0.00    +0.241 C 
ATOM      7  O   ASP A   4      34.976  -3.874  16.782  0.00  0.00    -0.273 OA
ATOM      8  N   ALA A   5      32.720  -3.905  16.632  0.00  0.00    -0.297 N 
ATOM      9  H   ALA A   5      31.844  -3.347  16.678  0.00  0.00    +0.150 HD
BRANCH   8  10
ATOM     10  CA  ALA A   5      32.644  -5.320  16.262  0.00  0.00    +0.149 C 
ATOM     11  CB  ALA A   5      32.989  -6.189  17.466  0.00  0.00    +0.031 C 
BRANCH  10  12
ATOM     12  C   ALA A   5      31.260  -5.681  15.772  0.00  0.00    +0.241 C 
ATOM     13  O   ALA A   5      30.315  -4.914  15.917  0.00  0.00    -0.273 OA
ATOM     14  N   SER A   6      31.146  -6.872  15.197  0.00  0.00    -0.295 N 
ATOM     15  H   SER A   6      32.001  -7.381  14.894  0.00  0.00    +0.150 HD
BRANCH  14  16
ATOM     16  CA  SER A   6      29.843  -7.472  14.986  0.00  0.00    +0.178 C 
BRANCH  16  17
ATOM     17  C   SER A   6      29.890  -8.878  15.562  0.00  0.00    +0.243 C 
ATOM     18  N   VAL A   7      28.757  -9.340  16.075  0.00  0.00    -0.295 N 
ATOM     19  H   VAL A   7      27.901  -8.751  16.031  0.00  0.00    +0.150 HD
ATOM     20  O   SER A   6      30.941  -9.524  15.551  0.00  0.00    -0.273 OA
BRANCH  18  21
ATOM     21  CA  VAL A   7      28.686 -10.658  16.700  0.00  0.00    +0.176 C 
BRANCH  21  22
ATOM     22  C   VAL A   7      27.415 -11.391  16.296  0.00  0.00    +0.382 C 
ATOM     23  OXT VAL A   7      27.338 -12.608  16.445  0.00  0.00    -0.244 OA
ATOM     24  O   VAL A   7      26.450 -10.784  15.827  0.00  0.00    -0.244 OA
ENDBRANCH  21  22
BRANCH  21  25
ATOM     25  CB  VAL A   7      28.801 -10.590  18.256  0.00  0.00    +0.029 C 
ATOM     26  CG2 VAL A   7      27.666  -9.768  18.864  0.00  0.00    +0.002 C 
ATOM     27  CG1 VAL A   7      30.163 -10.048  18.680  0.00  0.00    +0.002 C 
ENDBRANCH  21  25
ENDBRANCH  18  21
ENDBRANCH  16  17
BRANCH  16  28
ATOM     28  CB  SER A   6      29.464  -7.496  13.508  0.00  0.00    +0.166 C 
BRANCH  28  29
ATOM     29  OG  SER A   6      30.328  -8.338  12.769  0.00  0.00    -0.380 OA
ATOM     30  H   SER A   6      31.258  -8.008  12.851  0.00  0.00    +0.211 HD
ENDBRANCH  28  29
ENDBRANCH  16  28
ENDBRANCH  14  16
ENDBRANCH  10  12
ENDBRANCH   8  10
ENDBRANCH   5   6
BRANCH   5  31
ATOM     31  CB  ASP A   4      33.427  -1.896  18.933  0.00  0.00    +0.143 C 
BRANCH  31  32
ATOM     32  CG  ASP A   4      34.631  -2.182  19.821  0.00  0.00    +0.367 C 
ATOM     33  OD2 ASP A   4      34.507  -3.032  20.726  0.00  0.00    -0.246 OA
ATOM     34  OD1 ASP A   4      35.700  -1.543  19.617  0.00  0.00    -0.246 OA
ENDBRANCH  31  32
ENDBRANCH   5  31
ENDBRANCH   2   5
BRANCH   1  35
ATOM     35  CA  PHE A   3      32.383   0.712  15.024  0.00  0.00    +0.153 C 
BRANCH  35  38
ATOM     36  C   HIS A   2      32.513   2.797  16.249  0.00  0.00    +0.241 C 
ATOM     37  O   HIS A   2      31.549   2.490  16.959  0.00  0.00    -0.273 OA
ATOM     38  N   PHE A   3      32.940   2.039  15.243  0.00  0.00    -0.297 N 
ATOM     39  H   PHE A   3      33.680   2.398  14.606  0.00  0.00    +0.150 HD
BRANCH  36  40
ATOM     40  CA  HIS A   2      33.286   4.079  16.516  0.00  0.00    +0.155 C 
BRANCH  40  42
ATOM     41  C   VAL A   1      32.547   6.419  16.564  0.00  0.00    +0.238 C 
ATOM     42  N   HIS A   2      32.324   5.141  16.867  0.00  0.00    -0.297 N 
ATOM     43  H   HIS A   2      31.448   4.885  17.365  0.00  0.00    +0.150 HD
ATOM     44  O   VAL A   1      33.533   6.783  15.946  0.00  0.00    -0.274 OA
BRANCH  41  45
ATOM     45  CA  VAL A   1      31.501   7.449  17.030  0.00  0.00    +0.145 C 
BRANCH  45  46
ATOM     46  CB  VAL A   1      32.127   8.427  18.076  0.00  0.00    +0.025 C 
ATOM     47  CG2 VAL A   1      32.500   7.691  19.356  0.00  0.00    +0.002 C 
ATOM     48  CG1 VAL A   1      31.187   9.576  18.387  0.00  0.00    +0.002 C 
ENDBRANCH  45  46
BRANCH  45  49
ATOM     49  N   VAL A   1      30.265   6.823  17.500  0.00  0.00    -0.238 NA
ATOM     50  H   VAL A   1      30.314   6.095  18.241  0.00  0.00    +0.142 HD
ENDBRANCH  45  49
ENDBRANCH  41  45
ENDBRANCH  40  42
BRANCH  40  51
ATOM     51  CB  HIS A   2      34.238   3.846  17.708  0.00  0.00    +0.076 C 
BRANCH  51  52
ATOM     52  CG  HIS A   2      35.026   5.041  18.143  0.00  0.00    +0.082 A 
ATOM     53  CD2 HIS A   2      35.280   5.521  19.383  0.00  0.00    +0.115 A 
ATOM     54  NE2 HIS A   2      36.084   6.624  19.235  0.00  0.00    -0.221 NA
ATOM     55  CE1 HIS A   2      36.318   6.813  17.949  0.00  0.00    +0.199 A 
ATOM     56  ND1 HIS A   2      35.710   5.858  17.268  0.00  0.00    -0.227 NA
ENDBRANCH  51  52
ENDBRANCH  40  51
ENDBRANCH  36  40
ENDBRANCH  35  38
BRANCH  35  57
ATOM     57  CB  PHE A   3      32.185   0.423  13.533  0.00  0.00    +0.055 C 
BRANCH  57  58
ATOM     58  CG  PHE A   3      31.404  -0.833  13.276  0.00  0.00    -0.020 A 
ATOM     59  CD2 PHE A   3      32.030  -2.078  13.349  0.00  0.00    -0.004 A 
ATOM     60  CE2 PHE A   3      31.308  -3.251  13.135  0.00  0.00    -0.000 A 
ATOM     61  CZ  PHE A   3      29.936  -3.182  12.860  0.00  0.00    -0.000 A 
ATOM     62  CE1 PHE A   3      29.306  -1.953  12.797  0.00  0.00    -0.000 A 
ATOM     63  CD1 PHE A   3      30.038  -0.779  13.010  0.00  0.00    -0.004 A 
ENDBRANCH  57  58
ENDBRANCH  35  57
ENDBRANCH   1  35
TORSDOF 24
REMARK  Name = ../refined-set-2016/3d6q/3d6q_pocket.pdb
REMARK  137 active torsions:
REMARK  status: ('A' for Active; 'I' for Inactive)
REMARK    1  A    between atoms: _1  and  _3
REMARK    2  A    between atoms: _3  and  _4
REMARK    3  A    between atoms: _3  and  _6
REMARK    4  A    between atoms: _6  and  _7
REMARK    5  A    between atoms: _7  and  _8
REMARK    6  A    between atoms: _8  and  _9
REMARK    7  A    between atoms: _9  and  _10
REMARK    8  A    between atoms: _14  and  _16
REMARK    9  A    between atoms: _16  and  _17
REMARK   10  A    between atoms: _16  and  _19
REMARK   11  A    between atoms: _19  and  _20
REMARK   12  A    between atoms: _26  and  _28
REMARK   13  A    between atoms: _28  and  _29
REMARK   14  A    between atoms: _28  and  _31
REMARK   15  A    between atoms: _31  and  _32
REMARK   16  A    between atoms: _32  and  _33
REMARK   17  A    between atoms: _38  and  _40
REMARK   18  A    between atoms: _40  and  _41
REMARK   19  A    between atoms: _40  and  _43
REMARK   20  A    between atoms: _43  and  _44
REMARK   21  A    between atoms: _49  and  _51
REMARK   22  A    between atoms: _51  and  _52
REMARK   23  A    between atoms: _51  and  _54
REMARK   24  A    between atoms: _54  and  _55
REMARK   25  A    between atoms: _55  and  _56
REMARK   26  A    between atoms: _58  and  _60
REMARK   27  A    between atoms: _60  and  _61
REMARK   28  A    between atoms: _60  and  _63
REMARK   29  A    between atoms: _63  and  _64
REMARK   30  A    between atoms: _67  and  _69
REMARK   31  A    between atoms: _69  and  _70
REMARK   32  A    between atoms: _69  and  _72
REMARK   33  A    between atoms: _72  and  _73
REMARK   34  A    between atoms: _73  and  _74
REMARK   35  A    between atoms: _74  and  _75
REMARK   36  A    between atoms: _84  and  _86
REMARK   37  A    between atoms: _86  and  _87
REMARK   38  A    between atoms: _86  and  _89
REMARK   39  A    between atoms: _89  and  _90
REMARK   40  A    between atoms: _90  and  _91
REMARK   41  A    between atoms: _91  and  _92
REMARK   42  A    between atoms: _92  and  _93
REMARK   43  A    between atoms: _98  and  _99
REMARK   44  A    between atoms: _104  and  _106
REMARK   45  A    between atoms: _106  and  _107
REMARK   46  A    between atoms: _106  and  _109
REMARK   47  A    between atoms: _112  and  _114
REMARK   48  A    between atoms: _114  and  _115
REMARK   49  A    between atoms: _114  and  _117
REMARK   50  A    between atoms: _117  and  _118
REMARK   51  A    between atoms: _123  and  _125
REMARK   52  A    between atoms: _125  and  _126
REMARK   53  A    between atoms: _125  and  _128
REMARK   54  A    between atoms: _128  and  _129
REMARK   55  A    between atoms: _132  and  _134
REMARK   56  A    between atoms: _134  and  _135
REMARK   57  A    between atoms: _134  and  _137
REMARK   58  A    between atoms: _137  and  _138
REMARK   59  A    between atoms: _144  and  _146
REMARK   60  A    between atoms: _146  and  _147
REMARK   61  A    between atoms: _146  and  _149
REMARK   62  A    between atoms: _152  and  _154
REMARK   63  A    between atoms: _154  and  _155
REMARK   64  A    between atoms: _154  and  _157
REMARK   65  A    between atoms: _157  and  _158
REMARK   66  A    between atoms: _158  and  _159
REMARK   67  A    between atoms: _159  and  _160
REMARK   68  A    between atoms: _160  and  _161
REMARK   69  A    between atoms: _165  and  _167
REMARK   70  A    between atoms: _167  and  _168
REMARK   71  A    between atoms: _167  and  _170
REMARK   72  A    between atoms: _170  and  _171
REMARK   73  A    between atoms: _176  and  _178
REMARK   74  A    between atoms: _178  and  _179
REMARK   75  A    between atoms: _178  and  _181
REMARK   76  A    between atoms: _181  and  _182
REMARK   77  A    between atoms: _185  and  _187
REMARK   78  A    between atoms: _187  and  _188
REMARK   79  A    between atoms: _187  and  _190
REMARK   80  A    between atoms: _190  and  _191
REMARK   81  A    between atoms: _194  and  _196
REMARK   82  A    between atoms: _196  and  _197
REMARK   83  A    between atoms: _196  and  _199
REMARK   84  A    between atoms: _199  and  _200
REMARK   85  A    between atoms: _203  and  _205
REMARK   86  A    between atoms: _205  and  _206
REMARK   87  A    between atoms: _205  and  _208
REMARK   88  A    between atoms: _210  and  _212
REMARK   89  A    between atoms: _212  and  _213
REMARK   90  A    between atoms: _212  and  _215
REMARK   91  A    between atoms: _215  and  _216
REMARK   92  A    between atoms: _216  and  _217
REMARK   93  A    between atoms: _217  and  _218
REMARK   94  A    between atoms: _227  and  _229
REMARK   95  A    between atoms: _229  and  _230
REMARK   96  A    between atoms: _229  and  _232
REMARK   97  A    between atoms: _232  and  _233
REMARK   98  A    between atoms: _233  and  _234
REMARK   99  A    between atoms: _234  and  _235
REMARK  100  A    between atoms: _235  and  _236
REMARK  101  A    between atoms: _240  and  _242
REMARK  102  A    between atoms: _242  and  _243
REMARK  103  A    between atoms: _242  and  _245
REMARK  104  A    between atoms: _245  and  _246
REMARK  105  A    between atoms: _249  and  _251
REMARK  106  A    between atoms: _251  and  _252
REMARK  107  A    between atoms: _251  and  _254
REMARK  108  A    between atoms: _254  and  _255
REMARK  109  A    between atoms: _258  and  _260
REMARK  110  A    between atoms: _260  and  _261
REMARK  111  A    between atoms: _260  and  _263
REMARK  112  A    between atoms: _266  and  _268
REMARK  113  A    between atoms: _268  and  _269
REMARK  114  A    between atoms: _272  and  _274
REMARK  115  A    between atoms: _274  and  _275
REMARK  116  A    between atoms: _274  and  _277
REMARK  117  A    between atoms: _280  and  _282
REMARK  118  A    between atoms: _282  and  _283
REMARK  119  A    between atoms: _282  and  _285
REMARK  120  A    between atoms: _285  and  _286
REMARK  121  A    between atoms: _291  and  _293
REMARK  122  A    between atoms: _293  and  _294
REMARK  123  A    between atoms: _293  and  _296
REMARK  124  A    between atoms: _296  and  _297
REMARK  125  A    between atoms: _303  and  _305
REMARK  126  A    between atoms: _305  and  _306
REMARK  127  A    between atoms: _305  and  _308
REMARK  128  A    between atoms: _308  and  _309
REMARK  129  A    between atoms: _312  and  _314
REMARK  130  A    between atoms: _314  and  _315
REMARK  131  A    between atoms: _318  and  _320
REMARK  132  A    between atoms: _320  and  _321
REMARK  133  A    between atoms: _320  and  _323
REMARK  134  A    between atoms: _323  and  _324
REMARK  135  A    between atoms: _326  and  _328
REMARK  136  A    between atoms: _328  and  _329
REMARK  137  A    between atoms: _328  and  _331
REMARK                            x       y       z     vdW  Elec       q    Type
REMARK                         _______ _______ _______ _____ _____    ______ ____
ROOT
ATOM      1  O   HOH     1      42.506  -0.788  11.425  0.00  0.00    +0.000 OA
ENDROOT
TORSDOF 0
REMARK  Name = ../refined-set-2016/3d6q/3d6q_pocket.pdb
REMARK  137 active torsions:
REMARK  status: ('A' for Active; 'I' for Inactive)
REMARK    1  A    between atoms: _1  and  _3
REMARK    2  A    between atoms: _3  and  _4
REMARK    3  A    between atoms: _3  and  _6
REMARK    4  A    between atoms: _6  and  _7
REMARK    5  A    between atoms: _7  and  _8
REMARK    6  A    between atoms: _8  and  _9
REMARK    7  A    between atoms: _9  and  _10
REMARK    8  A    between atoms: _14  and  _16
REMARK    9  A    between atoms: _16  and  _17
REMARK   10  A    between atoms: _16  and  _19
REMARK   11  A    between atoms: _19  and  _20
REMARK   12  A    between atoms: _26  and  _28
REMARK   13  A    between atoms: _28  and  _29
REMARK   14  A    between atoms: _28  and  _31
REMARK   15  A    between atoms: _31  and  _32
REMARK   16  A    between atoms: _32  and  _33
REMARK   17  A    between atoms: _38  and  _40
REMARK   18  A    between atoms: _40  and  _41
REMARK   19  A    between atoms: _40  and  _43
REMARK   20  A    between atoms: _43  and  _44
REMARK   21  A    between atoms: _49  and  _51
REMARK   22  A    between atoms: _51  and  _52
REMARK   23  A    between atoms: _51  and  _54
REMARK   24  A    between atoms: _54  and  _55
REMARK   25  A    between atoms: _55  and  _56
REMARK   26  A    between atoms: _58  and  _60
REMARK   27  A    between atoms: _60  and  _61
REMARK   28  A    between atoms: _60  and  _63
REMARK   29  A    between atoms: _63  and  _64
REMARK   30  A    between atoms: _67  and  _69
REMARK   31  A    between atoms: _69  and  _70
REMARK   32  A    between atoms: _69  and  _72
REMARK   33  A    between atoms: _72  and  _73
REMARK   34  A    between atoms: _73  and  _74
REMARK   35  A    between atoms: _74  and  _75
REMARK   36  A    between atoms: _84  and  _86
REMARK   37  A    between atoms: _86  and  _87
REMARK   38  A    between atoms: _86  and  _89
REMARK   39  A    between atoms: _89  and  _90
REMARK   40  A    between atoms: _90  and  _91
REMARK   41  A    between atoms: _91  and  _92
REMARK   42  A    between atoms: _92  and  _93
REMARK   43  A    between atoms: _98  and  _99
REMARK   44  A    between atoms: _104  and  _106
REMARK   45  A    between atoms: _106  and  _107
REMARK   46  A    between atoms: _106  and  _109
REMARK   47  A    between atoms: _112  and  _114
REMARK   48  A    between atoms: _114  and  _115
REMARK   49  A    between atoms: _114  and  _117
REMARK   50  A    between atoms: _117  and  _118
REMARK   51  A    between atoms: _123  and  _125
REMARK   52  A    between atoms: _125  and  _126
REMARK   53  A    between atoms: _125  and  _128
REMARK   54  A    between atoms: _128  and  _129
REMARK   55  A    between atoms: _132  and  _134
REMARK   56  A    between atoms: _134  and  _135
REMARK   57  A    between atoms: _134  and  _137
REMARK   58  A    between atoms: _137  and  _138
REMARK   59  A    between atoms: _144  and  _146
REMARK   60  A    between atoms: _146  and  _147
REMARK   61  A    between atoms: _146  and  _149
REMARK   62  A    between atoms: _152  and  _154
REMARK   63  A    between atoms: _154  and  _155
REMARK   64  A    between atoms: _154  and  _157
REMARK   65  A    between atoms: _157  and  _158
REMARK   66  A    between atoms: _158  and  _159
REMARK   67  A    between atoms: _159  and  _160
REMARK   68  A    between atoms: _160  and  _161
REMARK   69  A    between atoms: _165  and  _167
REMARK   70  A    between atoms: _167  and  _168
REMARK   71  A    between atoms: _167  and  _170
REMARK   72  A    between atoms: _170  and  _171
REMARK   73  A    between atoms: _176  and  _178
REMARK   74  A    between atoms: _178  and  _179
REMARK   75  A    between atoms: _178  and  _181
REMARK   76  A    between atoms: _181  and  _182
REMARK   77  A    between atoms: _185  and  _187
REMARK   78  A    between atoms: _187  and  _188
REMARK   79  A    between atoms: _187  and  _190
REMARK   80  A    between atoms: _190  and  _191
REMARK   81  A    between atoms: _194  and  _196
REMARK   82  A    between atoms: _196  and  _197
REMARK   83  A    between atoms: _196  and  _199
REMARK   84  A    between atoms: _199  and  _200
REMARK   85  A    between atoms: _203  and  _205
REMARK   86  A    between atoms: _205  and  _206
REMARK   87  A    between atoms: _205  and  _208
REMARK   88  A    between atoms: _210  and  _212
REMARK   89  A    between atoms: _212  and  _213
REMARK   90  A    between atoms: _212  and  _215
REMARK   91  A    between atoms: _215  and  _216
REMARK   92  A    between atoms: _216  and  _217
REMARK   93  A    between atoms: _217  and  _218
REMARK   94  A    between atoms: _227  and  _229
REMARK   95  A    between atoms: _229  and  _230
REMARK   96  A    between atoms: _229  and  _232
REMARK   97  A    between atoms: _232  and  _233
REMARK   98  A    between atoms: _233  and  _234
REMARK   99  A    between atoms: _234  and  _235
REMARK  100  A    between atoms: _235  and  _236
REMARK  101  A    between atoms: _240  and  _242
REMARK  102  A    between atoms: _242  and  _243
REMARK  103  A    between atoms: _242  and  _245
REMARK  104  A    between atoms: _245  and  _246
REMARK  105  A    between atoms: _249  and  _251
REMARK  106  A    between atoms: _251  and  _252
REMARK  107  A    between atoms: _251  and  _254
REMARK  108  A    between atoms: _254  and  _255
REMARK  109  A    between atoms: _258  and  _260
REMARK  110  A    between atoms: _260  and  _261
REMARK  111  A    between atoms: _260  and  _263
REMARK  112  A    between atoms: _266  and  _268
REMARK  113  A    between atoms: _268  and  _269
REMARK  114  A    between atoms: _272  and  _274
REMARK  115  A    between atoms: _274  and  _275
REMARK  116  A    between atoms: _274  and  _277
REMARK  117  A    between atoms: _280  and  _282
REMARK  118  A    between atoms: _282  and  _283
REMARK  119  A    between atoms: _282  and  _285
REMARK  120  A    between atoms: _285  and  _286
REMARK  121  A    between atoms: _291  and  _293
REMARK  122  A    between atoms: _293  and  _294
REMARK  123  A    between atoms: _293  and  _296
REMARK  124  A    between atoms: _296  and  _297
REMARK  125  A    between atoms: _303  and  _305
REMARK  126  A    between atoms: _305  and  _306
REMARK  127  A    between atoms: _305  and  _308
REMARK  128  A    between atoms: _308  and  _309
REMARK  129  A    between atoms: _312  and  _314
REMARK  130  A    between atoms: _314  and  _315
REMARK  131  A    between atoms: _318  and  _320
REMARK  132  A    between atoms: _320  and  _321
REMARK  133  A    between atoms: _320  and  _323
REMARK  134  A    between atoms: _323  and  _324
REMARK  135  A    between atoms: _326  and  _328
REMARK  136  A    between atoms: _328  and  _329
REMARK  137  A    between atoms: _328  and  _331
REMARK                            x       y       z     vdW  Elec       q    Type
REMARK                         _______ _______ _______ _____ _____    ______ ____
ROOT
ATOM      1  O   HOH     1      37.440  -0.562  21.423  0.00  0.00    +0.000 OA
ENDROOT
TORSDOF 0
REMARK  Name = ../refined-set-2016/3d6q/3d6q_pocket.pdb
REMARK  137 active torsions:
REMARK  status: ('A' for Active; 'I' for Inactive)
REMARK    1  A    between atoms: _1  and  _3
REMARK    2  A    between atoms: _3  and  _4
REMARK    3  A    between atoms: _3  and  _6
REMARK    4  A    between atoms: _6  and  _7
REMARK    5  A    between atoms: _7  and  _8
REMARK    6  A    between atoms: _8  and  _9
REMARK    7  A    between atoms: _9  and  _10
REMARK    8  A    between atoms: _14  and  _16
REMARK    9  A    between atoms: _16  and  _17
REMARK   10  A    between atoms: _16  and  _19
REMARK   11  A    between atoms: _19  and  _20
REMARK   12  A    between atoms: _26  and  _28
REMARK   13  A    between atoms: _28  and  _29
REMARK   14  A    between atoms: _28  and  _31
REMARK   15  A    between atoms: _31  and  _32
REMARK   16  A    between atoms: _32  and  _33
REMARK   17  A    between atoms: _38  and  _40
REMARK   18  A    between atoms: _40  and  _41
REMARK   19  A    between atoms: _40  and  _43
REMARK   20  A    between atoms: _43  and  _44
REMARK   21  A    between atoms: _49  and  _51
REMARK   22  A    between atoms: _51  and  _52
REMARK   23  A    between atoms: _51  and  _54
REMARK   24  A    between atoms: _54  and  _55
REMARK   25  A    between atoms: _55  and  _56
REMARK   26  A    between atoms: _58  and  _60
REMARK   27  A    between atoms: _60  and  _61
REMARK   28  A    between atoms: _60  and  _63
REMARK   29  A    between atoms: _63  and  _64
REMARK   30  A    between atoms: _67  and  _69
REMARK   31  A    between atoms: _69  and  _70
REMARK   32  A    between atoms: _69  and  _72
REMARK   33  A    between atoms: _72  and  _73
REMARK   34  A    between atoms: _73  and  _74
REMARK   35  A    between atoms: _74  and  _75
REMARK   36  A    between atoms: _84  and  _86
REMARK   37  A    between atoms: _86  and  _87
REMARK   38  A    between atoms: _86  and  _89
REMARK   39  A    between atoms: _89  and  _90
REMARK   40  A    between atoms: _90  and  _91
REMARK   41  A    between atoms: _91  and  _92
REMARK   42  A    between atoms: _92  and  _93
REMARK   43  A    between atoms: _98  and  _99
REMARK   44  A    between atoms: _104  and  _106
REMARK   45  A    between atoms: _106  and  _107
REMARK   46  A    between atoms: _106  and  _109
REMARK   47  A    between atoms: _112  and  _114
REMARK   48  A    between atoms: _114  and  _115
REMARK   49  A    between atoms: _114  and  _117
REMARK   50  A    between atoms: _117  and  _118
REMARK   51  A    between atoms: _123  and  _125
REMARK   52  A    between atoms: _125  and  _126
REMARK   53  A    between atoms: _125  and  _128
REMARK   54  A    between atoms: _128  and  _129
REMARK   55  A    between atoms: _132  and  _134
REMARK   56  A    between atoms: _134  and  _135
REMARK   57  A    between atoms: _134  and  _137
REMARK   58  A    between atoms: _137  and  _138
REMARK   59  A    between atoms: _144  and  _146
REMARK   60  A    between atoms: _146  and  _147
REMARK   61  A    between atoms: _146  and  _149
REMARK   62  A    between atoms: _152  and  _154
REMARK   63  A    between atoms: _154  and  _155
REMARK   64  A    between atoms: _154  and  _157
REMARK   65  A    between atoms: _157  and  _158
REMARK   66  A    between atoms: _158  and  _159
REMARK   67  A    between atoms: _159  and  _160
REMARK   68  A    between atoms: _160  and  _161
REMARK   69  A    between atoms: _165  and  _167
REMARK   70  A    between atoms: _167  and  _168
REMARK   71  A    between atoms: _167  and  _170
REMARK   72  A    between atoms: _170  and  _171
REMARK   73  A    between atoms: _176  and  _178
REMARK   74  A    between atoms: _178  and  _179
REMARK   75  A    between atoms: _178  and  _181
REMARK   76  A    between atoms: _181  and  _182
REMARK   77  A    between atoms: _185  and  _187
REMARK   78  A    between atoms: _187  and  _188
REMARK   79  A    between atoms: _187  and  _190
REMARK   80  A    between atoms: _190  and  _191
REMARK   81  A    between atoms: _194  and  _196
REMARK   82  A    between atoms: _196  and  _197
REMARK   83  A    between atoms: _196  and  _199
REMARK   84  A    between atoms: _199  and  _200
REMARK   85  A    between atoms: _203  and  _205
REMARK   86  A    between atoms: _205  and  _206
REMARK   87  A    between atoms: _205  and  _208
REMARK   88  A    between atoms: _210  and  _212
REMARK   89  A    between atoms: _212  and  _213
REMARK   90  A    between atoms: _212  and  _215
REMARK   91  A    between atoms: _215  and  _216
REMARK   92  A    between atoms: _216  and  _217
REMARK   93  A    between atoms: _217  and  _218
REMARK   94  A    between atoms: _227  and  _229
REMARK   95  A    between atoms: _229  and  _230
REMARK   96  A    between atoms: _229  and  _232
REMARK   97  A    between atoms: _232  and  _233
REMARK   98  A    between atoms: _233  and  _234
REMARK   99  A    between atoms: _234  and  _235
REMARK  100  A    between atoms: _235  and  _236
REMARK  101  A    between atoms: _240  and  _242
REMARK  102  A    between atoms: _242  and  _243
REMARK  103  A    between atoms: _242  and  _245
REMARK  104  A    between atoms: _245  and  _246
REMARK  105  A    between atoms: _249  and  _251
REMARK  106  A    between atoms: _251  and  _252
REMARK  107  A    between atoms: _251  and  _254
REMARK  108  A    between atoms: _254  and  _255
REMARK  109  A    between atoms: _258  and  _260
REMARK  110  A    between atoms: _260  and  _261
REMARK  111  A    between atoms: _260  and  _263
REMARK  112  A    between atoms: _266  and  _268
REMARK  113  A    between atoms: _268  and  _269
REMARK  114  A    between atoms: _272  and  _274
REMARK  115  A    between atoms: _274  and  _275
REMARK  116  A    between atoms: _274  and  _277
REMARK  117  A    between atoms: _280  and  _282
REMARK  118  A    between atoms: _282  and  _283
REMARK  119  A    between atoms: _282  and  _285
REMARK  120  A    between atoms: _285  and  _286
REMARK  121  A    between atoms: _291  and  _293
REMARK  122  A    between atoms: _293  and  _294
REMARK  123  A    between atoms: _293  and  _296
REMARK  124  A    between atoms: _296  and  _297
REMARK  125  A    between atoms: _303  and  _305
REMARK  126  A    between atoms: _305  and  _306
REMARK  127  A    between atoms: _305  and  _308
REMARK  128  A    between atoms: _308  and  _309
REMARK  129  A    between atoms: _312  and  _314
REMARK  130  A    between atoms: _314  and  _315
REMARK  131  A    between atoms: _318  and  _320
REMARK  132  A    between atoms: _320  and  _321
REMARK  133  A    between atoms: _320  and  _323
REMARK  134  A    between atoms: _323  and  _324
REMARK  135  A    between atoms: _326  and  _328
REMARK  136  A    between atoms: _328  and  _329
REMARK  137  A    between atoms: _328  and  _331
REMARK                            x       y       z     vdW  Elec       q    Type
REMARK                         _______ _______ _______ _____ _____    ______ ____
ROOT
ATOM      1  O   HOH     1      34.157   5.855  12.587  0.00  0.00    +0.000 OA
ENDROOT
TORSDOF 0
REMARK  Name = ../refined-set-2016/3d6q/3d6q_pocket.pdb
REMARK  137 active torsions:
REMARK  status: ('A' for Active; 'I' for Inactive)
REMARK    1  A    between atoms: _1  and  _3
REMARK    2  A    between atoms: _3  and  _4
REMARK    3  A    between atoms: _3  and  _6
REMARK    4  A    between atoms: _6  and  _7
REMARK    5  A    between atoms: _7  and  _8
REMARK    6  A    between atoms: _8  and  _9
REMARK    7  A    between atoms: _9  and  _10
REMARK    8  A    between atoms: _14  and  _16
REMARK    9  A    between atoms: _16  and  _17
REMARK   10  A    between atoms: _16  and  _19
REMARK   11  A    between atoms: _19  and  _20
REMARK   12  A    between atoms: _26  and  _28
REMARK   13  A    between atoms: _28  and  _29
REMARK   14  A    between atoms: _28  and  _31
REMARK   15  A    between atoms: _31  and  _32
REMARK   16  A    between atoms: _32  and  _33
REMARK   17  A    between atoms: _38  and  _40
REMARK   18  A    between atoms: _40  and  _41
REMARK   19  A    between atoms: _40  and  _43
REMARK   20  A    between atoms: _43  and  _44
REMARK   21  A    between atoms: _49  and  _51
REMARK   22  A    between atoms: _51  and  _52
REMARK   23  A    between atoms: _51  and  _54
REMARK   24  A    between atoms: _54  and  _55
REMARK   25  A    between atoms: _55  and  _56
REMARK   26  A    between atoms: _58  and  _60
REMARK   27  A    between atoms: _60  and  _61
REMARK   28  A    between atoms: _60  and  _63
REMARK   29  A    between atoms: _63  and  _64
REMARK   30  A    between atoms: _67  and  _69
REMARK   31  A    between atoms: _69  and  _70
REMARK   32  A    between atoms: _69  and  _72
REMARK   33  A    between atoms: _72  and  _73
REMARK   34  A    between atoms: _73  and  _74
REMARK   35  A    between atoms: _74  and  _75
REMARK   36  A    between atoms: _84  and  _86
REMARK   37  A    between atoms: _86  and  _87
REMARK   38  A    between atoms: _86  and  _89
REMARK   39  A    between atoms: _89  and  _90
REMARK   40  A    between atoms: _90  and  _91
REMARK   41  A    between atoms: _91  and  _92
REMARK   42  A    between atoms: _92  and  _93
REMARK   43  A    between atoms: _98  and  _99
REMARK   44  A    between atoms: _104  and  _106
REMARK   45  A    between atoms: _106  and  _107
REMARK   46  A    between atoms: _106  and  _109
REMARK   47  A    between atoms: _112  and  _114
REMARK   48  A    between atoms: _114  and  _115
REMARK   49  A    between atoms: _114  and  _117
REMARK   50  A    between atoms: _117  and  _118
REMARK   51  A    between atoms: _123  and  _125
REMARK   52  A    between atoms: _125  and  _126
REMARK   53  A    between atoms: _125  and  _128
REMARK   54  A    between atoms: _128  and  _129
REMARK   55  A    between atoms: _132  and  _134
REMARK   56  A    between atoms: _134  and  _135
REMARK   57  A    between atoms: _134  and  _137
REMARK   58  A    between atoms: _137  and  _138
REMARK   59  A    between atoms: _144  and  _146
REMARK   60  A    between atoms: _146  and  _147
REMARK   61  A    between atoms: _146  and  _149
REMARK   62  A    between atoms: _152  and  _154
REMARK   63  A    between atoms: _154  and  _155
REMARK   64  A    between atoms: _154  and  _157
REMARK   65  A    between atoms: _157  and  _158
REMARK   66  A    between atoms: _158  and  _159
REMARK   67  A    between atoms: _159  and  _160
REMARK   68  A    between atoms: _160  and  _161
REMARK   69  A    between atoms: _165  and  _167
REMARK   70  A    between atoms: _167  and  _168
REMARK   71  A    between atoms: _167  and  _170
REMARK   72  A    between atoms: _170  and  _171
REMARK   73  A    between atoms: _176  and  _178
REMARK   74  A    between atoms: _178  and  _179
REMARK   75  A    between atoms: _178  and  _181
REMARK   76  A    between atoms: _181  and  _182
REMARK   77  A    between atoms: _185  and  _187
REMARK   78  A    between atoms: _187  and  _188
REMARK   79  A    between atoms: _187  and  _190
REMARK   80  A    between atoms: _190  and  _191
REMARK   81  A    between atoms: _194  and  _196
REMARK   82  A    between atoms: _196  and  _197
REMARK   83  A    between atoms: _196  and  _199
REMARK   84  A    between atoms: _199  and  _200
REMARK   85  A    between atoms: _203  and  _205
REMARK   86  A    between atoms: _205  and  _206
REMARK   87  A    between atoms: _205  and  _208
REMARK   88  A    between atoms: _210  and  _212
REMARK   89  A    between atoms: _212  and  _213
REMARK   90  A    between atoms: _212  and  _215
REMARK   91  A    between atoms: _215  and  _216
REMARK   92  A    between atoms: _216  and  _217
REMARK   93  A    between atoms: _217  and  _218
REMARK   94  A    between atoms: _227  and  _229
REMARK   95  A    between atoms: _229  and  _230
REMARK   96  A    between atoms: _229  and  _232
REMARK   97  A    between atoms: _232  and  _233
REMARK   98  A    between atoms: _233  and  _234
REMARK   99  A    between atoms: _234  and  _235
REMARK  100  A    between atoms: _235  and  _236
REMARK  101  A    between atoms: _240  and  _242
REMARK  102  A    between atoms: _242  and  _243
REMARK  103  A    between atoms: _242  and  _245
REMARK  104  A    between atoms: _245  and  _246
REMARK  105  A    between atoms: _249  and  _251
REMARK  106  A    between atoms: _251  and  _252
REMARK  107  A    between atoms: _251  and  _254
REMARK  108  A    between atoms: _254  and  _255
REMARK  109  A    between atoms: _258  and  _260
REMARK  110  A    between atoms: _260  and  _261
REMARK  111  A    between atoms: _260  and  _263
REMARK  112  A    between atoms: _266  and  _268
REMARK  113  A    between atoms: _268  and  _269
REMARK  114  A    between atoms: _272  and  _274
REMARK  115  A    between atoms: _274  and  _275
REMARK  116  A    between atoms: _274  and  _277
REMARK  117  A    between atoms: _280  and  _282
REMARK  118  A    between atoms: _282  and  _283
REMARK  119  A    between atoms: _282  and  _285
REMARK  120  A    between atoms: _285  and  _286
REMARK  121  A    between atoms: _291  and  _293
REMARK  122  A    between atoms: _293  and  _294
REMARK  123  A    between atoms: _293  and  _296
REMARK  124  A    between atoms: _296  and  _297
REMARK  125  A    between atoms: _303  and  _305
REMARK  126  A    between atoms: _305  and  _306
REMARK  127  A    between atoms: _305  and  _308
REMARK  128  A    between atoms: _308  and  _309
REMARK  129  A    between atoms: _312  and  _314
REMARK  130  A    between atoms: _314  and  _315
REMARK  131  A    between atoms: _318  and  _320
REMARK  132  A    between atoms: _320  and  _321
REMARK  133  A    between atoms: _320  and  _323
REMARK  134  A    between atoms: _323  and  _324
REMARK  135  A    between atoms: _326  and  _328
REMARK  136  A    between atoms: _328  and  _329
REMARK  137  A    between atoms: _328  and  _331
REMARK                            x       y       z     vdW  Elec       q    Type
REMARK                         _______ _______ _______ _____ _____    ______ ____
ROOT
ATOM      1  O   HOH     1      40.760  -0.638   9.703  0.00  0.00    +0.000 OA
ENDROOT
TORSDOF 0
REMARK  Name = ../refined-set-2016/3d6q/3d6q_pocket.pdb
REMARK  137 active torsions:
REMARK  status: ('A' for Active; 'I' for Inactive)
REMARK    1  A    between atoms: _1  and  _3
REMARK    2  A    between atoms: _3  and  _4
REMARK    3  A    between atoms: _3  and  _6
REMARK    4  A    between atoms: _6  and  _7
REMARK    5  A    between atoms: _7  and  _8
REMARK    6  A    between atoms: _8  and  _9
REMARK    7  A    between atoms: _9  and  _10
REMARK    8  A    between atoms: _14  and  _16
REMARK    9  A    between atoms: _16  and  _17
REMARK   10  A    between atoms: _16  and  _19
REMARK   11  A    between atoms: _19  and  _20
REMARK   12  A    between atoms: _26  and  _28
REMARK   13  A    between atoms: _28  and  _29
REMARK   14  A    between atoms: _28  and  _31
REMARK   15  A    between atoms: _31  and  _32
REMARK   16  A    between atoms: _32  and  _33
REMARK   17  A    between atoms: _38  and  _40
REMARK   18  A    between atoms: _40  and  _41
REMARK   19  A    between atoms: _40  and  _43
REMARK   20  A    between atoms: _43  and  _44
REMARK   21  A    between atoms: _49  and  _51
REMARK   22  A    between atoms: _51  and  _52
REMARK   23  A    between atoms: _51  and  _54
REMARK   24  A    between atoms: _54  and  _55
REMARK   25  A    between atoms: _55  and  _56
REMARK   26  A    between atoms: _58  and  _60
REMARK   27  A    between atoms: _60  and  _61
REMARK   28  A    between atoms: _60  and  _63
REMARK   29  A    between atoms: _63  and  _64
REMARK   30  A    between atoms: _67  and  _69
REMARK   31  A    between atoms: _69  and  _70
REMARK   32  A    between atoms: _69  and  _72
REMARK   33  A    between atoms: _72  and  _73
REMARK   34  A    between atoms: _73  and  _74
REMARK   35  A    between atoms: _74  and  _75
REMARK   36  A    between atoms: _84  and  _86
REMARK   37  A    between atoms: _86  and  _87
REMARK   38  A    between atoms: _86  and  _89
REMARK   39  A    between atoms: _89  and  _90
REMARK   40  A    between atoms: _90  and  _91
REMARK   41  A    between atoms: _91  and  _92
REMARK   42  A    between atoms: _92  and  _93
REMARK   43  A    between atoms: _98  and  _99
REMARK   44  A    between atoms: _104  and  _106
REMARK   45  A    between atoms: _106  and  _107
REMARK   46  A    between atoms: _106  and  _109
REMARK   47  A    between atoms: _112  and  _114
REMARK   48  A    between atoms: _114  and  _115
REMARK   49  A    between atoms: _114  and  _117
REMARK   50  A    between atoms: _117  and  _118
REMARK   51  A    between atoms: _123  and  _125
REMARK   52  A    between atoms: _125  and  _126
REMARK   53  A    between atoms: _125  and  _128
REMARK   54  A    between atoms: _128  and  _129
REMARK   55  A    between atoms: _132  and  _134
REMARK   56  A    between atoms: _134  and  _135
REMARK   57  A    between atoms: _134  and  _137
REMARK   58  A    between atoms: _137  and  _138
REMARK   59  A    between atoms: _144  and  _146
REMARK   60  A    between atoms: _146  and  _147
REMARK   61  A    between atoms: _146  and  _149
REMARK   62  A    between atoms: _152  and  _154
REMARK   63  A    between atoms: _154  and  _155
REMARK   64  A    between atoms: _154  and  _157
REMARK   65  A    between atoms: _157  and  _158
REMARK   66  A    between atoms: _158  and  _159
REMARK   67  A    between atoms: _159  and  _160
REMARK   68  A    between atoms: _160  and  _161
REMARK   69  A    between atoms: _165  and  _167
REMARK   70  A    between atoms: _167  and  _168
REMARK   71  A    between atoms: _167  and  _170
REMARK   72  A    between atoms: _170  and  _171
REMARK   73  A    between atoms: _176  and  _178
REMARK   74  A    between atoms: _178  and  _179
REMARK   75  A    between atoms: _178  and  _181
REMARK   76  A    between atoms: _181  and  _182
REMARK   77  A    between atoms: _185  and  _187
REMARK   78  A    between atoms: _187  and  _188
REMARK   79  A    between atoms: _187  and  _190
REMARK   80  A    between atoms: _190  and  _191
REMARK   81  A    between atoms: _194  and  _196
REMARK   82  A    between atoms: _196  and  _197
REMARK   83  A    between atoms: _196  and  _199
REMARK   84  A    between atoms: _199  and  _200
REMARK   85  A    between atoms: _203  and  _205
REMARK   86  A    between atoms: _205  and  _206
REMARK   87  A    between atoms: _205  and  _208
REMARK   88  A    between atoms: _210  and  _212
REMARK   89  A    between atoms: _212  and  _213
REMARK   90  A    between atoms: _212  and  _215
REMARK   91  A    between atoms: _215  and  _216
REMARK   92  A    between atoms: _216  and  _217
REMARK   93  A    between atoms: _217  and  _218
REMARK   94  A    between atoms: _227  and  _229
REMARK   95  A    between atoms: _229  and  _230
REMARK   96  A    between atoms: _229  and  _232
REMARK   97  A    between atoms: _232  and  _233
REMARK   98  A    between atoms: _233  and  _234
REMARK   99  A    between atoms: _234  and  _235
REMARK  100  A    between atoms: _235  and  _236
REMARK  101  A    between atoms: _240  and  _242
REMARK  102  A    between atoms: _242  and  _243
REMARK  103  A    between atoms: _242  and  _245
REMARK  104  A    between atoms: _245  and  _246
REMARK  105  A    between atoms: _249  and  _251
REMARK  106  A    between atoms: _251  and  _252
REMARK  107  A    between atoms: _251  and  _254
REMARK  108  A    between atoms: _254  and  _255
REMARK  109  A    between atoms: _258  and  _260
REMARK  110  A    between atoms: _260  and  _261
REMARK  111  A    between atoms: _260  and  _263
REMARK  112  A    between atoms: _266  and  _268
REMARK  113  A    between atoms: _268  and  _269
REMARK  114  A    between atoms: _272  and  _274
REMARK  115  A    between atoms: _274  and  _275
REMARK  116  A    between atoms: _274  and  _277
REMARK  117  A    between atoms: _280  and  _282
REMARK  118  A    between atoms: _282  and  _283
REMARK  119  A    between atoms: _282  and  _285
REMARK  120  A    between atoms: _285  and  _286
REMARK  121  A    between atoms: _291  and  _293
REMARK  122  A    between atoms: _293  and  _294
REMARK  123  A    between atoms: _293  and  _296
REMARK  124  A    between atoms: _296  and  _297
REMARK  125  A    between atoms: _303  and  _305
REMARK  126  A    between atoms: _305  and  _306
REMARK  127  A    between atoms: _305  and  _308
REMARK  128  A    between atoms: _308  and  _309
REMARK  129  A    between atoms: _312  and  _314
REMARK  130  A    between atoms: _314  and  _315
REMARK  131  A    between atoms: _318  and  _320
REMARK  132  A    between atoms: _320  and  _321
REMARK  133  A    between atoms: _320  and  _323
REMARK  134  A    between atoms: _323  and  _324
REMARK  135  A    between atoms: _326  and  _328
REMARK  136  A    between atoms: _328  and  _329
REMARK  137  A    between atoms: _328  and  _331
REMARK                            x       y       z     vdW  Elec       q    Type
REMARK                         _______ _______ _______ _____ _____    ______ ____
ROOT
ATOM      1  O   HOH     1      35.188   3.144  13.775  0.00  0.00    +0.000 OA
ENDROOT
TORSDOF 0
REMARK  Name = ../refined-set-2016/3d6q/3d6q_pocket.pdb
REMARK  137 active torsions:
REMARK  status: ('A' for Active; 'I' for Inactive)
REMARK    1  A    between atoms: _1  and  _3
REMARK    2  A    between atoms: _3  and  _4
REMARK    3  A    between atoms: _3  and  _6
REMARK    4  A    between atoms: _6  and  _7
REMARK    5  A    between atoms: _7  and  _8
REMARK    6  A    between atoms: _8  and  _9
REMARK    7  A    between atoms: _9  and  _10
REMARK    8  A    between atoms: _14  and  _16
REMARK    9  A    between atoms: _16  and  _17
REMARK   10  A    between atoms: _16  and  _19
REMARK   11  A    between atoms: _19  and  _20
REMARK   12  A    between atoms: _26  and  _28
REMARK   13  A    between atoms: _28  and  _29
REMARK   14  A    between atoms: _28  and  _31
REMARK   15  A    between atoms: _31  and  _32
REMARK   16  A    between atoms: _32  and  _33
REMARK   17  A    between atoms: _38  and  _40
REMARK   18  A    between atoms: _40  and  _41
REMARK   19  A    between atoms: _40  and  _43
REMARK   20  A    between atoms: _43  and  _44
REMARK   21  A    between atoms: _49  and  _51
REMARK   22  A    between atoms: _51  and  _52
REMARK   23  A    between atoms: _51  and  _54
REMARK   24  A    between atoms: _54  and  _55
REMARK   25  A    between atoms: _55  and  _56
REMARK   26  A    between atoms: _58  and  _60
REMARK   27  A    between atoms: _60  and  _61
REMARK   28  A    between atoms: _60  and  _63
REMARK   29  A    between atoms: _63  and  _64
REMARK   30  A    between atoms: _67  and  _69
REMARK   31  A    between atoms: _69  and  _70
REMARK   32  A    between atoms: _69  and  _72
REMARK   33  A    between atoms: _72  and  _73
REMARK   34  A    between atoms: _73  and  _74
REMARK   35  A    between atoms: _74  and  _75
REMARK   36  A    between atoms: _84  and  _86
REMARK   37  A    between atoms: _86  and  _87
REMARK   38  A    between atoms: _86  and  _89
REMARK   39  A    between atoms: _89  and  _90
REMARK   40  A    between atoms: _90  and  _91
REMARK   41  A    between atoms: _91  and  _92
REMARK   42  A    between atoms: _92  and  _93
REMARK   43  A    between atoms: _98  and  _99
REMARK   44  A    between atoms: _104  and  _106
REMARK   45  A    between atoms: _106  and  _107
REMARK   46  A    between atoms: _106  and  _109
REMARK   47  A    between atoms: _112  and  _114
REMARK   48  A    between atoms: _114  and  _115
REMARK   49  A    between atoms: _114  and  _117
REMARK   50  A    between atoms: _117  and  _118
REMARK   51  A    between atoms: _123  and  _125
REMARK   52  A    between atoms: _125  and  _126
REMARK   53  A    between atoms: _125  and  _128
REMARK   54  A    between atoms: _128  and  _129
REMARK   55  A    between atoms: _132  and  _134
REMARK   56  A    between atoms: _134  and  _135
REMARK   57  A    between atoms: _134  and  _137
REMARK   58  A    between atoms: _137  and  _138
REMARK   59  A    between atoms: _144  and  _146
REMARK   60  A    between atoms: _146  and  _147
REMARK   61  A    between atoms: _146  and  _149
REMARK   62  A    between atoms: _152  and  _154
REMARK   63  A    between atoms: _154  and  _155
REMARK   64  A    between atoms: _154  and  _157
REMARK   65  A    between atoms: _157  and  _158
REMARK   66  A    between atoms: _158  and  _159
REMARK   67  A    between atoms: _159  and  _160
REMARK   68  A    between atoms: _160  and  _161
REMARK   69  A    between atoms: _165  and  _167
REMARK   70  A    between atoms: _167  and  _168
REMARK   71  A    between atoms: _167  and  _170
REMARK   72  A    between atoms: _170  and  _171
REMARK   73  A    between atoms: _176  and  _178
REMARK   74  A    between atoms: _178  and  _179
REMARK   75  A    between atoms: _178  and  _181
REMARK   76  A    between atoms: _181  and  _182
REMARK   77  A    between atoms: _185  and  _187
REMARK   78  A    between atoms: _187  and  _188
REMARK   79  A    between atoms: _187  and  _190
REMARK   80  A    between atoms: _190  and  _191
REMARK   81  A    between atoms: _194  and  _196
REMARK   82  A    between atoms: _196  and  _197
REMARK   83  A    between atoms: _196  and  _199
REMARK   84  A    between atoms: _199  and  _200
REMARK   85  A    between atoms: _203  and  _205
REMARK   86  A    between atoms: _205  and  _206
REMARK   87  A    between atoms: _205  and  _208
REMARK   88  A    between atoms: _210  and  _212
REMARK   89  A    between atoms: _212  and  _213
REMARK   90  A    between atoms: _212  and  _215
REMARK   91  A    between atoms: _215  and  _216
REMARK   92  A    between atoms: _216  and  _217
REMARK   93  A    between atoms: _217  and  _218
REMARK   94  A    between atoms: _227  and  _229
REMARK   95  A    between atoms: _229  and  _230
REMARK   96  A    between atoms: _229  and  _232
REMARK   97  A    between atoms: _232  and  _233
REMARK   98  A    between atoms: _233  and  _234
REMARK   99  A    between atoms: _234  and  _235
REMARK  100  A    between atoms: _235  and  _236
REMARK  101  A    between atoms: _240  and  _242
REMARK  102  A    between atoms: _242  and  _243
REMARK  103  A    between atoms: _242  and  _245
REMARK  104  A    between atoms: _245  and  _246
REMARK  105  A    between atoms: _249  and  _251
REMARK  106  A    between atoms: _251  and  _252
REMARK  107  A    between atoms: _251  and  _254
REMARK  108  A    between atoms: _254  and  _255
REMARK  109  A    between atoms: _258  and  _260
REMARK  110  A    between atoms: _260  and  _261
REMARK  111  A    between atoms: _260  and  _263
REMARK  112  A    between atoms: _266  and  _268
REMARK  113  A    between atoms: _268  and  _269
REMARK  114  A    between atoms: _272  and  _274
REMARK  115  A    between atoms: _274  and  _275
REMARK  116  A    between atoms: _274  and  _277
REMARK  117  A    between atoms: _280  and  _282
REMARK  118  A    between atoms: _282  and  _283
REMARK  119  A    between atoms: _282  and  _285
REMARK  120  A    between atoms: _285  and  _286
REMARK  121  A    between atoms: _291  and  _293
REMARK  122  A    between atoms: _293  and  _294
REMARK  123  A    between atoms: _293  and  _296
REMARK  124  A    between atoms: _296  and  _297
REMARK  125  A    between atoms: _303  and  _305
REMARK  126  A    between atoms: _305  and  _306
REMARK  127  A    between atoms: _305  and  _308
REMARK  128  A    between atoms: _308  and  _309
REMARK  129  A    between atoms: _312  and  _314
REMARK  130  A    between atoms: _314  and  _315
REMARK  131  A    between atoms: _318  and  _320
REMARK  132  A    between atoms: _320  and  _321
REMARK  133  A    between atoms: _320  and  _323
REMARK  134  A    between atoms: _323  and  _324
REMARK  135  A    between atoms: _326  and  _328
REMARK  136  A    between atoms: _328  and  _329
REMARK  137  A    between atoms: _328  and  _331
REMARK                            x       y       z     vdW  Elec       q    Type
REMARK                         _______ _______ _______ _____ _____    ______ ____
ROOT
ATOM      1  O   HOH     1      33.365 -10.071  16.652  0.00  0.00    +0.000 OA
ENDROOT
TORSDOF 0
REMARK  Name = ../refined-set-2016/3d6q/3d6q_pocket.pdb
REMARK  137 active torsions:
REMARK  status: ('A' for Active; 'I' for Inactive)
REMARK    1  A    between atoms: _1  and  _3
REMARK    2  A    between atoms: _3  and  _4
REMARK    3  A    between atoms: _3  and  _6
REMARK    4  A    between atoms: _6  and  _7
REMARK    5  A    between atoms: _7  and  _8
REMARK    6  A    between atoms: _8  and  _9
REMARK    7  A    between atoms: _9  and  _10
REMARK    8  A    between atoms: _14  and  _16
REMARK    9  A    between atoms: _16  and  _17
REMARK   10  A    between atoms: _16  and  _19
REMARK   11  A    between atoms: _19  and  _20
REMARK   12  A    between atoms: _26  and  _28
REMARK   13  A    between atoms: _28  and  _29
REMARK   14  A    between atoms: _28  and  _31
REMARK   15  A    between atoms: _31  and  _32
REMARK   16  A    between atoms: _32  and  _33
REMARK   17  A    between atoms: _38  and  _40
REMARK   18  A    between atoms: _40  and  _41
REMARK   19  A    between atoms: _40  and  _43
REMARK   20  A    between atoms: _43  and  _44
REMARK   21  A    between atoms: _49  and  _51
REMARK   22  A    between atoms: _51  and  _52
REMARK   23  A    between atoms: _51  and  _54
REMARK   24  A    between atoms: _54  and  _55
REMARK   25  A    between atoms: _55  and  _56
REMARK   26  A    between atoms: _58  and  _60
REMARK   27  A    between atoms: _60  and  _61
REMARK   28  A    between atoms: _60  and  _63
REMARK   29  A    between atoms: _63  and  _64
REMARK   30  A    between atoms: _67  and  _69
REMARK   31  A    between atoms: _69  and  _70
REMARK   32  A    between atoms: _69  and  _72
REMARK   33  A    between atoms: _72  and  _73
REMARK   34  A    between atoms: _73  and  _74
REMARK   35  A    between atoms: _74  and  _75
REMARK   36  A    between atoms: _84  and  _86
REMARK   37  A    between atoms: _86  and  _87
REMARK   38  A    between atoms: _86  and  _89
REMARK   39  A    between atoms: _89  and  _90
REMARK   40  A    between atoms: _90  and  _91
REMARK   41  A    between atoms: _91  and  _92
REMARK   42  A    between atoms: _92  and  _93
REMARK   43  A    between atoms: _98  and  _99
REMARK   44  A    between atoms: _104  and  _106
REMARK   45  A    between atoms: _106  and  _107
REMARK   46  A    between atoms: _106  and  _109
REMARK   47  A    between atoms: _112  and  _114
REMARK   48  A    between atoms: _114  and  _115
REMARK   49  A    between atoms: _114  and  _117
REMARK   50  A    between atoms: _117  and  _118
REMARK   51  A    between atoms: _123  and  _125
REMARK   52  A    between atoms: _125  and  _126
REMARK   53  A    between atoms: _125  and  _128
REMARK   54  A    between atoms: _128  and  _129
REMARK   55  A    between atoms: _132  and  _134
REMARK   56  A    between atoms: _134  and  _135
REMARK   57  A    between atoms: _134  and  _137
REMARK   58  A    between atoms: _137  and  _138
REMARK   59  A    between atoms: _144  and  _146
REMARK   60  A    between atoms: _146  and  _147
REMARK   61  A    between atoms: _146  and  _149
REMARK   62  A    between atoms: _152  and  _154
REMARK   63  A    between atoms: _154  and  _155
REMARK   64  A    between atoms: _154  and  _157
REMARK   65  A    between atoms: _157  and  _158
REMARK   66  A    between atoms: _158  and  _159
REMARK   67  A    between atoms: _159  and  _160
REMARK   68  A    between atoms: _160  and  _161
REMARK   69  A    between atoms: _165  and  _167
REMARK   70  A    between atoms: _167  and  _168
REMARK   71  A    between atoms: _167  and  _170
REMARK   72  A    between atoms: _170  and  _171
REMARK   73  A    between atoms: _176  and  _178
REMARK   74  A    between atoms: _178  and  _179
REMARK   75  A    between atoms: _178  and  _181
REMARK   76  A    between atoms: _181  and  _182
REMARK   77  A    between atoms: _185  and  _187
REMARK   78  A    between atoms: _187  and  _188
REMARK   79  A    between atoms: _187  and  _190
REMARK   80  A    between atoms: _190  and  _191
REMARK   81  A    between atoms: _194  and  _196
REMARK   82  A    between atoms: _196  and  _197
REMARK   83  A    between atoms: _196  and  _199
REMARK   84  A    between atoms: _199  and  _200
REMARK   85  A    between atoms: _203  and  _205
REMARK   86  A    between atoms: _205  and  _206
REMARK   87  A    between atoms: _205  and  _208
REMARK   88  A    between atoms: _210  and  _212
REMARK   89  A    between atoms: _212  and  _213
REMARK   90  A    between atoms: _212  and  _215
REMARK   91  A    between atoms: _215  and  _216
REMARK   92  A    between atoms: _216  and  _217
REMARK   93  A    between atoms: _217  and  _218
REMARK   94  A    between atoms: _227  and  _229
REMARK   95  A    between atoms: _229  and  _230
REMARK   96  A    between atoms: _229  and  _232
REMARK   97  A    between atoms: _232  and  _233
REMARK   98  A    between atoms: _233  and  _234
REMARK   99  A    between atoms: _234  and  _235
REMARK  100  A    between atoms: _235  and  _236
REMARK  101  A    between atoms: _240  and  _242
REMARK  102  A    between atoms: _242  and  _243
REMARK  103  A    between atoms: _242  and  _245
REMARK  104  A    between atoms: _245  and  _246
REMARK  105  A    between atoms: _249  and  _251
REMARK  106  A    between atoms: _251  and  _252
REMARK  107  A    between atoms: _251  and  _254
REMARK  108  A    between atoms: _254  and  _255
REMARK  109  A    between atoms: _258  and  _260
REMARK  110  A    between atoms: _260  and  _261
REMARK  111  A    between atoms: _260  and  _263
REMARK  112  A    between atoms: _266  and  _268
REMARK  113  A    between atoms: _268  and  _269
REMARK  114  A    between atoms: _272  and  _274
REMARK  115  A    between atoms: _274  and  _275
REMARK  116  A    between atoms: _274  and  _277
REMARK  117  A    between atoms: _280  and  _282
REMARK  118  A    between atoms: _282  and  _283
REMARK  119  A    between atoms: _282  and  _285
REMARK  120  A    between atoms: _285  and  _286
REMARK  121  A    between atoms: _291  and  _293
REMARK  122  A    between atoms: _293  and  _294
REMARK  123  A    between atoms: _293  and  _296
REMARK  124  A    between atoms: _296  and  _297
REMARK  125  A    between atoms: _303  and  _305
REMARK  126  A    between atoms: _305  and  _306
REMARK  127  A    between atoms: _305  and  _308
REMARK  128  A    between atoms: _308  and  _309
REMARK  129  A    between atoms: _312  and  _314
REMARK  130  A    between atoms: _314  and  _315
REMARK  131  A    between atoms: _318  and  _320
REMARK  132  A    between atoms: _320  and  _321
REMARK  133  A    between atoms: _320  and  _323
REMARK  134  A    between atoms: _323  and  _324
REMARK  135  A    between atoms: _326  and  _328
REMARK  136  A    between atoms: _328  and  _329
REMARK  137  A    between atoms: _328  and  _331
REMARK                            x       y       z     vdW  Elec       q    Type
REMARK                         _______ _______ _______ _____ _____    ______ ____
ROOT
ATOM      1  O   HOH     1      33.883  -7.865  14.355  0.00  0.00    +0.000 OA
ENDROOT
TORSDOF 0
REMARK  Name = ../refined-set-2016/3d6q/3d6q_pocket.pdb
REMARK  137 active torsions:
REMARK  status: ('A' for Active; 'I' for Inactive)
REMARK    1  A    between atoms: _1  and  _3
REMARK    2  A    between atoms: _3  and  _4
REMARK    3  A    between atoms: _3  and  _6
REMARK    4  A    between atoms: _6  and  _7
REMARK    5  A    between atoms: _7  and  _8
REMARK    6  A    between atoms: _8  and  _9
REMARK    7  A    between atoms: _9  and  _10
REMARK    8  A    between atoms: _14  and  _16
REMARK    9  A    between atoms: _16  and  _17
REMARK   10  A    between atoms: _16  and  _19
REMARK   11  A    between atoms: _19  and  _20
REMARK   12  A    between atoms: _26  and  _28
REMARK   13  A    between atoms: _28  and  _29
REMARK   14  A    between atoms: _28  and  _31
REMARK   15  A    between atoms: _31  and  _32
REMARK   16  A    between atoms: _32  and  _33
REMARK   17  A    between atoms: _38  and  _40
REMARK   18  A    between atoms: _40  and  _41
REMARK   19  A    between atoms: _40  and  _43
REMARK   20  A    between atoms: _43  and  _44
REMARK   21  A    between atoms: _49  and  _51
REMARK   22  A    between atoms: _51  and  _52
REMARK   23  A    between atoms: _51  and  _54
REMARK   24  A    between atoms: _54  and  _55
REMARK   25  A    between atoms: _55  and  _56
REMARK   26  A    between atoms: _58  and  _60
REMARK   27  A    between atoms: _60  and  _61
REMARK   28  A    between atoms: _60  and  _63
REMARK   29  A    between atoms: _63  and  _64
REMARK   30  A    between atoms: _67  and  _69
REMARK   31  A    between atoms: _69  and  _70
REMARK   32  A    between atoms: _69  and  _72
REMARK   33  A    between atoms: _72  and  _73
REMARK   34  A    between atoms: _73  and  _74
REMARK   35  A    between atoms: _74  and  _75
REMARK   36  A    between atoms: _84  and  _86
REMARK   37  A    between atoms: _86  and  _87
REMARK   38  A    between atoms: _86  and  _89
REMARK   39  A    between atoms: _89  and  _90
REMARK   40  A    between atoms: _90  and  _91
REMARK   41  A    between atoms: _91  and  _92
REMARK   42  A    between atoms: _92  and  _93
REMARK   43  A    between atoms: _98  and  _99
REMARK   44  A    between atoms: _104  and  _106
REMARK   45  A    between atoms: _106  and  _107
REMARK   46  A    between atoms: _106  and  _109
REMARK   47  A    between atoms: _112  and  _114
REMARK   48  A    between atoms: _114  and  _115
REMARK   49  A    between atoms: _114  and  _117
REMARK   50  A    between atoms: _117  and  _118
REMARK   51  A    between atoms: _123  and  _125
REMARK   52  A    between atoms: _125  and  _126
REMARK   53  A    between atoms: _125  and  _128
REMARK   54  A    between atoms: _128  and  _129
REMARK   55  A    between atoms: _132  and  _134
REMARK   56  A    between atoms: _134  and  _135
REMARK   57  A    between atoms: _134  and  _137
REMARK   58  A    between atoms: _137  and  _138
REMARK   59  A    between atoms: _144  and  _146
REMARK   60  A    between atoms: _146  and  _147
REMARK   61  A    between atoms: _146  and  _149
REMARK   62  A    between atoms: _152  and  _154
REMARK   63  A    between atoms: _154  and  _155
REMARK   64  A    between atoms: _154  and  _157
REMARK   65  A    between atoms: _157  and  _158
REMARK   66  A    between atoms: _158  and  _159
REMARK   67  A    between atoms: _159  and  _160
REMARK   68  A    between atoms: _160  and  _161
REMARK   69  A    between atoms: _165  and  _167
REMARK   70  A    between atoms: _167  and  _168
REMARK   71  A    between atoms: _167  and  _170
REMARK   72  A    between atoms: _170  and  _171
REMARK   73  A    between atoms: _176  and  _178
REMARK   74  A    between atoms: _178  and  _179
REMARK   75  A    between atoms: _178  and  _181
REMARK   76  A    between atoms: _181  and  _182
REMARK   77  A    between atoms: _185  and  _187
REMARK   78  A    between atoms: _187  and  _188
REMARK   79  A    between atoms: _187  and  _190
REMARK   80  A    between atoms: _190  and  _191
REMARK   81  A    between atoms: _194  and  _196
REMARK   82  A    between atoms: _196  and  _197
REMARK   83  A    between atoms: _196  and  _199
REMARK   84  A    between atoms: _199  and  _200
REMARK   85  A    between atoms: _203  and  _205
REMARK   86  A    between atoms: _205  and  _206
REMARK   87  A    between atoms: _205  and  _208
REMARK   88  A    between atoms: _210  and  _212
REMARK   89  A    between atoms: _212  and  _213
REMARK   90  A    between atoms: _212  and  _215
REMARK   91  A    between atoms: _215  and  _216
REMARK   92  A    between atoms: _216  and  _217
REMARK   93  A    between atoms: _217  and  _218
REMARK   94  A    between atoms: _227  and  _229
REMARK   95  A    between atoms: _229  and  _230
REMARK   96  A    between atoms: _229  and  _232
REMARK   97  A    between atoms: _232  and  _233
REMARK   98  A    between atoms: _233  and  _234
REMARK   99  A    between atoms: _234  and  _235
REMARK  100  A    between atoms: _235  and  _236
REMARK  101  A    between atoms: _240  and  _242
REMARK  102  A    between atoms: _242  and  _243
REMARK  103  A    between atoms: _242  and  _245
REMARK  104  A    between atoms: _245  and  _246
REMARK  105  A    between atoms: _249  and  _251
REMARK  106  A    between atoms: _251  and  _252
REMARK  107  A    between atoms: _251  and  _254
REMARK  108  A    between atoms: _254  and  _255
REMARK  109  A    between atoms: _258  and  _260
REMARK  110  A    between atoms: _260  and  _261
REMARK  111  A    between atoms: _260  and  _263
REMARK  112  A    between atoms: _266  and  _268
REMARK  113  A    between atoms: _268  and  _269
REMARK  114  A    between atoms: _272  and  _274
REMARK  115  A    between atoms: _274  and  _275
REMARK  116  A    between atoms: _274  and  _277
REMARK  117  A    between atoms: _280  and  _282
REMARK  118  A    between atoms: _282  and  _283
REMARK  119  A    between atoms: _282  and  _285
REMARK  120  A    between atoms: _285  and  _286
REMARK  121  A    between atoms: _291  and  _293
REMARK  122  A    between atoms: _293  and  _294
REMARK  123  A    between atoms: _293  and  _296
REMARK  124  A    between atoms: _296  and  _297
REMARK  125  A    between atoms: _303  and  _305
REMARK  126  A    between atoms: _305  and  _306
REMARK  127  A    between atoms: _305  and  _308
REMARK  128  A    between atoms: _308  and  _309
REMARK  129  A    between atoms: _312  and  _314
REMARK  130  A    between atoms: _314  and  _315
REMARK  131  A    between atoms: _318  and  _320
REMARK  132  A    between atoms: _320  and  _321
REMARK  133  A    between atoms: _320  and  _323
REMARK  134  A    between atoms: _323  and  _324
REMARK  135  A    between atoms: _326  and  _328
REMARK  136  A    between atoms: _328  and  _329
REMARK  137  A    between atoms: _328  and  _331
REMARK                            x       y       z     vdW  Elec       q    Type
REMARK                         _______ _______ _______ _____ _____    ______ ____
ROOT
ATOM      1  O   HOH     1      37.438  -2.808  16.485  0.00  0.00    +0.000 OA
ENDROOT
TORSDOF 0
REMARK  Name = ../refined-set-2016/3d6q/3d6q_pocket.pdb
REMARK  137 active torsions:
REMARK  status: ('A' for Active; 'I' for Inactive)
REMARK    1  A    between atoms: _1  and  _3
REMARK    2  A    between atoms: _3  and  _4
REMARK    3  A    between atoms: _3  and  _6
REMARK    4  A    between atoms: _6  and  _7
REMARK    5  A    between atoms: _7  and  _8
REMARK    6  A    between atoms: _8  and  _9
REMARK    7  A    between atoms: _9  and  _10
REMARK    8  A    between atoms: _14  and  _16
REMARK    9  A    between atoms: _16  and  _17
REMARK   10  A    between atoms: _16  and  _19
REMARK   11  A    between atoms: _19  and  _20
REMARK   12  A    between atoms: _26  and  _28
REMARK   13  A    between atoms: _28  and  _29
REMARK   14  A    between atoms: _28  and  _31
REMARK   15  A    between atoms: _31  and  _32
REMARK   16  A    between atoms: _32  and  _33
REMARK   17  A    between atoms: _38  and  _40
REMARK   18  A    between atoms: _40  and  _41
REMARK   19  A    between atoms: _40  and  _43
REMARK   20  A    between atoms: _43  and  _44
REMARK   21  A    between atoms: _49  and  _51
REMARK   22  A    between atoms: _51  and  _52
REMARK   23  A    between atoms: _51  and  _54
REMARK   24  A    between atoms: _54  and  _55
REMARK   25  A    between atoms: _55  and  _56
REMARK   26  A    between atoms: _58  and  _60
REMARK   27  A    between atoms: _60  and  _61
REMARK   28  A    between atoms: _60  and  _63
REMARK   29  A    between atoms: _63  and  _64
REMARK   30  A    between atoms: _67  and  _69
REMARK   31  A    between atoms: _69  and  _70
REMARK   32  A    between atoms: _69  and  _72
REMARK   33  A    between atoms: _72  and  _73
REMARK   34  A    between atoms: _73  and  _74
REMARK   35  A    between atoms: _74  and  _75
REMARK   36  A    between atoms: _84  and  _86
REMARK   37  A    between atoms: _86  and  _87
REMARK   38  A    between atoms: _86  and  _89
REMARK   39  A    between atoms: _89  and  _90
REMARK   40  A    between atoms: _90  and  _91
REMARK   41  A    between atoms: _91  and  _92
REMARK   42  A    between atoms: _92  and  _93
REMARK   43  A    between atoms: _98  and  _99
REMARK   44  A    between atoms: _104  and  _106
REMARK   45  A    between atoms: _106  and  _107
REMARK   46  A    between atoms: _106  and  _109
REMARK   47  A    between atoms: _112  and  _114
REMARK   48  A    between atoms: _114  and  _115
REMARK   49  A    between atoms: _114  and  _117
REMARK   50  A    between atoms: _117  and  _118
REMARK   51  A    between atoms: _123  and  _125
REMARK   52  A    between atoms: _125  and  _126
REMARK   53  A    between atoms: _125  and  _128
REMARK   54  A    between atoms: _128  and  _129
REMARK   55  A    between atoms: _132  and  _134
REMARK   56  A    between atoms: _134  and  _135
REMARK   57  A    between atoms: _134  and  _137
REMARK   58  A    between atoms: _137  and  _138
REMARK   59  A    between atoms: _144  and  _146
REMARK   60  A    between atoms: _146  and  _147
REMARK   61  A    between atoms: _146  and  _149
REMARK   62  A    between atoms: _152  and  _154
REMARK   63  A    between atoms: _154  and  _155
REMARK   64  A    between atoms: _154  and  _157
REMARK   65  A    between atoms: _157  and  _158
REMARK   66  A    between atoms: _158  and  _159
REMARK   67  A    between atoms: _159  and  _160
REMARK   68  A    between atoms: _160  and  _161
REMARK   69  A    between atoms: _165  and  _167
REMARK   70  A    between atoms: _167  and  _168
REMARK   71  A    between atoms: _167  and  _170
REMARK   72  A    between atoms: _170  and  _171
REMARK   73  A    between atoms: _176  and  _178
REMARK   74  A    between atoms: _178  and  _179
REMARK   75  A    between atoms: _178  and  _181
REMARK   76  A    between atoms: _181  and  _182
REMARK   77  A    between atoms: _185  and  _187
REMARK   78  A    between atoms: _187  and  _188
REMARK   79  A    between atoms: _187  and  _190
REMARK   80  A    between atoms: _190  and  _191
REMARK   81  A    between atoms: _194  and  _196
REMARK   82  A    between atoms: _196  and  _197
REMARK   83  A    between atoms: _196  and  _199
REMARK   84  A    between atoms: _199  and  _200
REMARK   85  A    between atoms: _203  and  _205
REMARK   86  A    between atoms: _205  and  _206
REMARK   87  A    between atoms: _205  and  _208
REMARK   88  A    between atoms: _210  and  _212
REMARK   89  A    between atoms: _212  and  _213
REMARK   90  A    between atoms: _212  and  _215
REMARK   91  A    between atoms: _215  and  _216
REMARK   92  A    between atoms: _216  and  _217
REMARK   93  A    between atoms: _217  and  _218
REMARK   94  A    between atoms: _227  and  _229
REMARK   95  A    between atoms: _229  and  _230
REMARK   96  A    between atoms: _229  and  _232
REMARK   97  A    between atoms: _232  and  _233
REMARK   98  A    between atoms: _233  and  _234
REMARK   99  A    between atoms: _234  and  _235
REMARK  100  A    between atoms: _235  and  _236
REMARK  101  A    between atoms: _240  and  _242
REMARK  102  A    between atoms: _242  and  _243
REMARK  103  A    between atoms: _242  and  _245
REMARK  104  A    between atoms: _245  and  _246
REMARK  105  A    between atoms: _249  and  _251
REMARK  106  A    between atoms: _251  and  _252
REMARK  107  A    between atoms: _251  and  _254
REMARK  108  A    between atoms: _254  and  _255
REMARK  109  A    between atoms: _258  and  _260
REMARK  110  A    between atoms: _260  and  _261
REMARK  111  A    between atoms: _260  and  _263
REMARK  112  A    between atoms: _266  and  _268
REMARK  113  A    between atoms: _268  and  _269
REMARK  114  A    between atoms: _272  and  _274
REMARK  115  A    between atoms: _274  and  _275
REMARK  116  A    between atoms: _274  and  _277
REMARK  117  A    between atoms: _280  and  _282
REMARK  118  A    between atoms: _282  and  _283
REMARK  119  A    between atoms: _282  and  _285
REMARK  120  A    between atoms: _285  and  _286
REMARK  121  A    between atoms: _291  and  _293
REMARK  122  A    between atoms: _293  and  _294
REMARK  123  A    between atoms: _293  and  _296
REMARK  124  A    between atoms: _296  and  _297
REMARK  125  A    between atoms: _303  and  _305
REMARK  126  A    between atoms: _305  and  _306
REMARK  127  A    between atoms: _305  and  _308
REMARK  128  A    between atoms: _308  and  _309
REMARK  129  A    between atoms: _312  and  _314
REMARK  130  A    between atoms: _314  and  _315
REMARK  131  A    between atoms: _318  and  _320
REMARK  132  A    between atoms: _320  and  _321
REMARK  133  A    between atoms: _320  and  _323
REMARK  134  A    between atoms: _323  and  _324
REMARK  135  A    between atoms: _326  and  _328
REMARK  136  A    between atoms: _328  and  _329
REMARK  137  A    between atoms: _328  and  _331
REMARK                            x       y       z     vdW  Elec       q    Type
REMARK                         _______ _______ _______ _____ _____    ______ ____
ROOT
ATOM      1  O   HOH     1      31.754  -6.663  11.552  0.00  0.00    +0.000 OA
ENDROOT
TORSDOF 0
REMARK  Name = ../refined-set-2016/3d6q/3d6q_pocket.pdb
REMARK  137 active torsions:
REMARK  status: ('A' for Active; 'I' for Inactive)
REMARK    1  A    between atoms: _1  and  _3
REMARK    2  A    between atoms: _3  and  _4
REMARK    3  A    between atoms: _3  and  _6
REMARK    4  A    between atoms: _6  and  _7
REMARK    5  A    between atoms: _7  and  _8
REMARK    6  A    between atoms: _8  and  _9
REMARK    7  A    between atoms: _9  and  _10
REMARK    8  A    between atoms: _14  and  _16
REMARK    9  A    between atoms: _16  and  _17
REMARK   10  A    between atoms: _16  and  _19
REMARK   11  A    between atoms: _19  and  _20
REMARK   12  A    between atoms: _26  and  _28
REMARK   13  A    between atoms: _28  and  _29
REMARK   14  A    between atoms: _28  and  _31
REMARK   15  A    between atoms: _31  and  _32
REMARK   16  A    between atoms: _32  and  _33
REMARK   17  A    between atoms: _38  and  _40
REMARK   18  A    between atoms: _40  and  _41
REMARK   19  A    between atoms: _40  and  _43
REMARK   20  A    between atoms: _43  and  _44
REMARK   21  A    between atoms: _49  and  _51
REMARK   22  A    between atoms: _51  and  _52
REMARK   23  A    between atoms: _51  and  _54
REMARK   24  A    between atoms: _54  and  _55
REMARK   25  A    between atoms: _55  and  _56
REMARK   26  A    between atoms: _58  and  _60
REMARK   27  A    between atoms: _60  and  _61
REMARK   28  A    between atoms: _60  and  _63
REMARK   29  A    between atoms: _63  and  _64
REMARK   30  A    between atoms: _67  and  _69
REMARK   31  A    between atoms: _69  and  _70
REMARK   32  A    between atoms: _69  and  _72
REMARK   33  A    between atoms: _72  and  _73
REMARK   34  A    between atoms: _73  and  _74
REMARK   35  A    between atoms: _74  and  _75
REMARK   36  A    between atoms: _84  and  _86
REMARK   37  A    between atoms: _86  and  _87
REMARK   38  A    between atoms: _86  and  _89
REMARK   39  A    between atoms: _89  and  _90
REMARK   40  A    between atoms: _90  and  _91
REMARK   41  A    between atoms: _91  and  _92
REMARK   42  A    between atoms: _92  and  _93
REMARK   43  A    between atoms: _98  and  _99
REMARK   44  A    between atoms: _104  and  _106
REMARK   45  A    between atoms: _106  and  _107
REMARK   46  A    between atoms: _106  and  _109
REMARK   47  A    between atoms: _112  and  _114
REMARK   48  A    between atoms: _114  and  _115
REMARK   49  A    between atoms: _114  and  _117
REMARK   50  A    between atoms: _117  and  _118
REMARK   51  A    between atoms: _123  and  _125
REMARK   52  A    between atoms: _125  and  _126
REMARK   53  A    between atoms: _125  and  _128
REMARK   54  A    between atoms: _128  and  _129
REMARK   55  A    between atoms: _132  and  _134
REMARK   56  A    between atoms: _134  and  _135
REMARK   57  A    between atoms: _134  and  _137
REMARK   58  A    between atoms: _137  and  _138
REMARK   59  A    between atoms: _144  and  _146
REMARK   60  A    between atoms: _146  and  _147
REMARK   61  A    between atoms: _146  and  _149
REMARK   62  A    between atoms: _152  and  _154
REMARK   63  A    between atoms: _154  and  _155
REMARK   64  A    between atoms: _154  and  _157
REMARK   65  A    between atoms: _157  and  _158
REMARK   66  A    between atoms: _158  and  _159
REMARK   67  A    between atoms: _159  and  _160
REMARK   68  A    between atoms: _160  and  _161
REMARK   69  A    between atoms: _165  and  _167
REMARK   70  A    between atoms: _167  and  _168
REMARK   71  A    between atoms: _167  and  _170
REMARK   72  A    between atoms: _170  and  _171
REMARK   73  A    between atoms: _176  and  _178
REMARK   74  A    between atoms: _178  and  _179
REMARK   75  A    between atoms: _178  and  _181
REMARK   76  A    between atoms: _181  and  _182
REMARK   77  A    between atoms: _185  and  _187
REMARK   78  A    between atoms: _187  and  _188
REMARK   79  A    between atoms: _187  and  _190
REMARK   80  A    between atoms: _190  and  _191
REMARK   81  A    between atoms: _194  and  _196
REMARK   82  A    between atoms: _196  and  _197
REMARK   83  A    between atoms: _196  and  _199
REMARK   84  A    between atoms: _199  and  _200
REMARK   85  A    between atoms: _203  and  _205
REMARK   86  A    between atoms: _205  and  _206
REMARK   87  A    between atoms: _205  and  _208
REMARK   88  A    between atoms: _210  and  _212
REMARK   89  A    between atoms: _212  and  _213
REMARK   90  A    between atoms: _212  and  _215
REMARK   91  A    between atoms: _215  and  _216
REMARK   92  A    between atoms: _216  and  _217
REMARK   93  A    between atoms: _217  and  _218
REMARK   94  A    between atoms: _227  and  _229
REMARK   95  A    between atoms: _229  and  _230
REMARK   96  A    between atoms: _229  and  _232
REMARK   97  A    between atoms: _232  and  _233
REMARK   98  A    between atoms: _233  and  _234
REMARK   99  A    between atoms: _234  and  _235
REMARK  100  A    between atoms: _235  and  _236
REMARK  101  A    between atoms: _240  and  _242
REMARK  102  A    between atoms: _242  and  _243
REMARK  103  A    between atoms: _242  and  _245
REMARK  104  A    between atoms: _245  and  _246
REMARK  105  A    between atoms: _249  and  _251
REMARK  106  A    between atoms: _251  and  _252
REMARK  107  A    between atoms: _251  and  _254
REMARK  108  A    between atoms: _254  and  _255
REMARK  109  A    between atoms: _258  and  _260
REMARK  110  A    between atoms: _260  and  _261
REMARK  111  A    between atoms: _260  and  _263
REMARK  112  A    between atoms: _266  and  _268
REMARK  113  A    between atoms: _268  and  _269
REMARK  114  A    between atoms: _272  and  _274
REMARK  115  A    between atoms: _274  and  _275
REMARK  116  A    between atoms: _274  and  _277
REMARK  117  A    between atoms: _280  and  _282
REMARK  118  A    between atoms: _282  and  _283
REMARK  119  A    between atoms: _282  and  _285
REMARK  120  A    between atoms: _285  and  _286
REMARK  121  A    between atoms: _291  and  _293
REMARK  122  A    between atoms: _293  and  _294
REMARK  123  A    between atoms: _293  and  _296
REMARK  124  A    between atoms: _296  and  _297
REMARK  125  A    between atoms: _303  and  _305
REMARK  126  A    between atoms: _305  and  _306
REMARK  127  A    between atoms: _305  and  _308
REMARK  128  A    between atoms: _308  and  _309
REMARK  129  A    between atoms: _312  and  _314
REMARK  130  A    between atoms: _314  and  _315
REMARK  131  A    between atoms: _318  and  _320
REMARK  132  A    between atoms: _320  and  _321
REMARK  133  A    between atoms: _320  and  _323
REMARK  134  A    between atoms: _323  and  _324
REMARK  135  A    between atoms: _326  and  _328
REMARK  136  A    between atoms: _328  and  _329
REMARK  137  A    between atoms: _328  and  _331
REMARK                            x       y       z     vdW  Elec       q    Type
REMARK                         _______ _______ _______ _____ _____    ______ ____
ROOT
ATOM      1  O   HOH     1      38.721   3.905  17.877  0.00  0.00    +0.000 OA
ENDROOT
TORSDOF 0
REMARK  Name = ../refined-set-2016/3d6q/3d6q_pocket.pdb
REMARK  137 active torsions:
REMARK  status: ('A' for Active; 'I' for Inactive)
REMARK    1  A    between atoms: _1  and  _3
REMARK    2  A    between atoms: _3  and  _4
REMARK    3  A    between atoms: _3  and  _6
REMARK    4  A    between atoms: _6  and  _7
REMARK    5  A    between atoms: _7  and  _8
REMARK    6  A    between atoms: _8  and  _9
REMARK    7  A    between atoms: _9  and  _10
REMARK    8  A    between atoms: _14  and  _16
REMARK    9  A    between atoms: _16  and  _17
REMARK   10  A    between atoms: _16  and  _19
REMARK   11  A    between atoms: _19  and  _20
REMARK   12  A    between atoms: _26  and  _28
REMARK   13  A    between atoms: _28  and  _29
REMARK   14  A    between atoms: _28  and  _31
REMARK   15  A    between atoms: _31  and  _32
REMARK   16  A    between atoms: _32  and  _33
REMARK   17  A    between atoms: _38  and  _40
REMARK   18  A    between atoms: _40  and  _41
REMARK   19  A    between atoms: _40  and  _43
REMARK   20  A    between atoms: _43  and  _44
REMARK   21  A    between atoms: _49  and  _51
REMARK   22  A    between atoms: _51  and  _52
REMARK   23  A    between atoms: _51  and  _54
REMARK   24  A    between atoms: _54  and  _55
REMARK   25  A    between atoms: _55  and  _56
REMARK   26  A    between atoms: _58  and  _60
REMARK   27  A    between atoms: _60  and  _61
REMARK   28  A    between atoms: _60  and  _63
REMARK   29  A    between atoms: _63  and  _64
REMARK   30  A    between atoms: _67  and  _69
REMARK   31  A    between atoms: _69  and  _70
REMARK   32  A    between atoms: _69  and  _72
REMARK   33  A    between atoms: _72  and  _73
REMARK   34  A    between atoms: _73  and  _74
REMARK   35  A    between atoms: _74  and  _75
REMARK   36  A    between atoms: _84  and  _86
REMARK   37  A    between atoms: _86  and  _87
REMARK   38  A    between atoms: _86  and  _89
REMARK   39  A    between atoms: _89  and  _90
REMARK   40  A    between atoms: _90  and  _91
REMARK   41  A    between atoms: _91  and  _92
REMARK   42  A    between atoms: _92  and  _93
REMARK   43  A    between atoms: _98  and  _99
REMARK   44  A    between atoms: _104  and  _106
REMARK   45  A    between atoms: _106  and  _107
REMARK   46  A    between atoms: _106  and  _109
REMARK   47  A    between atoms: _112  and  _114
REMARK   48  A    between atoms: _114  and  _115
REMARK   49  A    between atoms: _114  and  _117
REMARK   50  A    between atoms: _117  and  _118
REMARK   51  A    between atoms: _123  and  _125
REMARK   52  A    between atoms: _125  and  _126
REMARK   53  A    between atoms: _125  and  _128
REMARK   54  A    between atoms: _128  and  _129
REMARK   55  A    between atoms: _132  and  _134
REMARK   56  A    between atoms: _134  and  _135
REMARK   57  A    between atoms: _134  and  _137
REMARK   58  A    between atoms: _137  and  _138
REMARK   59  A    between atoms: _144  and  _146
REMARK   60  A    between atoms: _146  and  _147
REMARK   61  A    between atoms: _146  and  _149
REMARK   62  A    between atoms: _152  and  _154
REMARK   63  A    between atoms: _154  and  _155
REMARK   64  A    between atoms: _154  and  _157
REMARK   65  A    between atoms: _157  and  _158
REMARK   66  A    between atoms: _158  and  _159
REMARK   67  A    between atoms: _159  and  _160
REMARK   68  A    between atoms: _160  and  _161
REMARK   69  A    between atoms: _165  and  _167
REMARK   70  A    between atoms: _167  and  _168
REMARK   71  A    between atoms: _167  and  _170
REMARK   72  A    between atoms: _170  and  _171
REMARK   73  A    between atoms: _176  and  _178
REMARK   74  A    between atoms: _178  and  _179
REMARK   75  A    between atoms: _178  and  _181
REMARK   76  A    between atoms: _181  and  _182
REMARK   77  A    between atoms: _185  and  _187
REMARK   78  A    between atoms: _187  and  _188
REMARK   79  A    between atoms: _187  and  _190
REMARK   80  A    between atoms: _190  and  _191
REMARK   81  A    between atoms: _194  and  _196
REMARK   82  A    between atoms: _196  and  _197
REMARK   83  A    between atoms: _196  and  _199
REMARK   84  A    between atoms: _199  and  _200
REMARK   85  A    between atoms: _203  and  _205
REMARK   86  A    between atoms: _205  and  _206
REMARK   87  A    between atoms: _205  and  _208
REMARK   88  A    between atoms: _210  and  _212
REMARK   89  A    between atoms: _212  and  _213
REMARK   90  A    between atoms: _212  and  _215
REMARK   91  A    between atoms: _215  and  _216
REMARK   92  A    between atoms: _216  and  _217
REMARK   93  A    between atoms: _217  and  _218
REMARK   94  A    between atoms: _227  and  _229
REMARK   95  A    between atoms: _229  and  _230
REMARK   96  A    between atoms: _229  and  _232
REMARK   97  A    between atoms: _232  and  _233
REMARK   98  A    between atoms: _233  and  _234
REMARK   99  A    between atoms: _234  and  _235
REMARK  100  A    between atoms: _235  and  _236
REMARK  101  A    between atoms: _240  and  _242
REMARK  102  A    between atoms: _242  and  _243
REMARK  103  A    between atoms: _242  and  _245
REMARK  104  A    between atoms: _245  and  _246
REMARK  105  A    between atoms: _249  and  _251
REMARK  106  A    between atoms: _251  and  _252
REMARK  107  A    between atoms: _251  and  _254
REMARK  108  A    between atoms: _254  and  _255
REMARK  109  A    between atoms: _258  and  _260
REMARK  110  A    between atoms: _260  and  _261
REMARK  111  A    between atoms: _260  and  _263
REMARK  112  A    between atoms: _266  and  _268
REMARK  113  A    between atoms: _268  and  _269
REMARK  114  A    between atoms: _272  and  _274
REMARK  115  A    between atoms: _274  and  _275
REMARK  116  A    between atoms: _274  and  _277
REMARK  117  A    between atoms: _280  and  _282
REMARK  118  A    between atoms: _282  and  _283
REMARK  119  A    between atoms: _282  and  _285
REMARK  120  A    between atoms: _285  and  _286
REMARK  121  A    between atoms: _291  and  _293
REMARK  122  A    between atoms: _293  and  _294
REMARK  123  A    between atoms: _293  and  _296
REMARK  124  A    between atoms: _296  and  _297
REMARK  125  A    between atoms: _303  and  _305
REMARK  126  A    between atoms: _305  and  _306
REMARK  127  A    between atoms: _305  and  _308
REMARK  128  A    between atoms: _308  and  _309
REMARK  129  A    between atoms: _312  and  _314
REMARK  130  A    between atoms: _314  and  _315
REMARK  131  A    between atoms: _318  and  _320
REMARK  132  A    between atoms: _320  and  _321
REMARK  133  A    between atoms: _320  and  _323
REMARK  134  A    between atoms: _323  and  _324
REMARK  135  A    between atoms: _326  and  _328
REMARK  136  A    between atoms: _328  and  _329
REMARK  137  A    between atoms: _328  and  _331
REMARK                            x       y       z     vdW  Elec       q    Type
REMARK                         _______ _______ _______ _____ _____    ______ ____
ROOT
ATOM      1  O   HOH     1      32.125 -11.843  14.828  0.00  0.00    +0.000 OA
ENDROOT
TORSDOF 0
REMARK  Name = ../refined-set-2016/3d6q/3d6q_pocket.pdb
REMARK  137 active torsions:
REMARK  status: ('A' for Active; 'I' for Inactive)
REMARK    1  A    between atoms: _1  and  _3
REMARK    2  A    between atoms: _3  and  _4
REMARK    3  A    between atoms: _3  and  _6
REMARK    4  A    between atoms: _6  and  _7
REMARK    5  A    between atoms: _7  and  _8
REMARK    6  A    between atoms: _8  and  _9
REMARK    7  A    between atoms: _9  and  _10
REMARK    8  A    between atoms: _14  and  _16
REMARK    9  A    between atoms: _16  and  _17
REMARK   10  A    between atoms: _16  and  _19
REMARK   11  A    between atoms: _19  and  _20
REMARK   12  A    between atoms: _26  and  _28
REMARK   13  A    between atoms: _28  and  _29
REMARK   14  A    between atoms: _28  and  _31
REMARK   15  A    between atoms: _31  and  _32
REMARK   16  A    between atoms: _32  and  _33
REMARK   17  A    between atoms: _38  and  _40
REMARK   18  A    between atoms: _40  and  _41
REMARK   19  A    between atoms: _40  and  _43
REMARK   20  A    between atoms: _43  and  _44
REMARK   21  A    between atoms: _49  and  _51
REMARK   22  A    between atoms: _51  and  _52
REMARK   23  A    between atoms: _51  and  _54
REMARK   24  A    between atoms: _54  and  _55
REMARK   25  A    between atoms: _55  and  _56
REMARK   26  A    between atoms: _58  and  _60
REMARK   27  A    between atoms: _60  and  _61
REMARK   28  A    between atoms: _60  and  _63
REMARK   29  A    between atoms: _63  and  _64
REMARK   30  A    between atoms: _67  and  _69
REMARK   31  A    between atoms: _69  and  _70
REMARK   32  A    between atoms: _69  and  _72
REMARK   33  A    between atoms: _72  and  _73
REMARK   34  A    between atoms: _73  and  _74
REMARK   35  A    between atoms: _74  and  _75
REMARK   36  A    between atoms: _84  and  _86
REMARK   37  A    between atoms: _86  and  _87
REMARK   38  A    between atoms: _86  and  _89
REMARK   39  A    between atoms: _89  and  _90
REMARK   40  A    between atoms: _90  and  _91
REMARK   41  A    between atoms: _91  and  _92
REMARK   42  A    between atoms: _92  and  _93
REMARK   43  A    between atoms: _98  and  _99
REMARK   44  A    between atoms: _104  and  _106
REMARK   45  A    between atoms: _106  and  _107
REMARK   46  A    between atoms: _106  and  _109
REMARK   47  A    between atoms: _112  and  _114
REMARK   48  A    between atoms: _114  and  _115
REMARK   49  A    between atoms: _114  and  _117
REMARK   50  A    between atoms: _117  and  _118
REMARK   51  A    between atoms: _123  and  _125
REMARK   52  A    between atoms: _125  and  _126
REMARK   53  A    between atoms: _125  and  _128
REMARK   54  A    between atoms: _128  and  _129
REMARK   55  A    between atoms: _132  and  _134
REMARK   56  A    between atoms: _134  and  _135
REMARK   57  A    between atoms: _134  and  _137
REMARK   58  A    between atoms: _137  and  _138
REMARK   59  A    between atoms: _144  and  _146
REMARK   60  A    between atoms: _146  and  _147
REMARK   61  A    between atoms: _146  and  _149
REMARK   62  A    between atoms: _152  and  _154
REMARK   63  A    between atoms: _154  and  _155
REMARK   64  A    between atoms: _154  and  _157
REMARK   65  A    between atoms: _157  and  _158
REMARK   66  A    between atoms: _158  and  _159
REMARK   67  A    between atoms: _159  and  _160
REMARK   68  A    between atoms: _160  and  _161
REMARK   69  A    between atoms: _165  and  _167
REMARK   70  A    between atoms: _167  and  _168
REMARK   71  A    between atoms: _167  and  _170
REMARK   72  A    between atoms: _170  and  _171
REMARK   73  A    between atoms: _176  and  _178
REMARK   74  A    between atoms: _178  and  _179
REMARK   75  A    between atoms: _178  and  _181
REMARK   76  A    between atoms: _181  and  _182
REMARK   77  A    between atoms: _185  and  _187
REMARK   78  A    between atoms: _187  and  _188
REMARK   79  A    between atoms: _187  and  _190
REMARK   80  A    between atoms: _190  and  _191
REMARK   81  A    between atoms: _194  and  _196
REMARK   82  A    between atoms: _196  and  _197
REMARK   83  A    between atoms: _196  and  _199
REMARK   84  A    between atoms: _199  and  _200
REMARK   85  A    between atoms: _203  and  _205
REMARK   86  A    between atoms: _205  and  _206
REMARK   87  A    between atoms: _205  and  _208
REMARK   88  A    between atoms: _210  and  _212
REMARK   89  A    between atoms: _212  and  _213
REMARK   90  A    between atoms: _212  and  _215
REMARK   91  A    between atoms: _215  and  _216
REMARK   92  A    between atoms: _216  and  _217
REMARK   93  A    between atoms: _217  and  _218
REMARK   94  A    between atoms: _227  and  _229
REMARK   95  A    between atoms: _229  and  _230
REMARK   96  A    between atoms: _229  and  _232
REMARK   97  A    between atoms: _232  and  _233
REMARK   98  A    between atoms: _233  and  _234
REMARK   99  A    between atoms: _234  and  _235
REMARK  100  A    between atoms: _235  and  _236
REMARK  101  A    between atoms: _240  and  _242
REMARK  102  A    between atoms: _242  and  _243
REMARK  103  A    between atoms: _242  and  _245
REMARK  104  A    between atoms: _245  and  _246
REMARK  105  A    between atoms: _249  and  _251
REMARK  106  A    between atoms: _251  and  _252
REMARK  107  A    between atoms: _251  and  _254
REMARK  108  A    between atoms: _254  and  _255
REMARK  109  A    between atoms: _258  and  _260
REMARK  110  A    between atoms: _260  and  _261
REMARK  111  A    between atoms: _260  and  _263
REMARK  112  A    between atoms: _266  and  _268
REMARK  113  A    between atoms: _268  and  _269
REMARK  114  A    between atoms: _272  and  _274
REMARK  115  A    between atoms: _274  and  _275
REMARK  116  A    between atoms: _274  and  _277
REMARK  117  A    between atoms: _280  and  _282
REMARK  118  A    between atoms: _282  and  _283
REMARK  119  A    between atoms: _282  and  _285
REMARK  120  A    between atoms: _285  and  _286
REMARK  121  A    between atoms: _291  and  _293
REMARK  122  A    between atoms: _293  and  _294
REMARK  123  A    between atoms: _293  and  _296
REMARK  124  A    between atoms: _296  and  _297
REMARK  125  A    between atoms: _303  and  _305
REMARK  126  A    between atoms: _305  and  _306
REMARK  127  A    between atoms: _305  and  _308
REMARK  128  A    between atoms: _308  and  _309
REMARK  129  A    between atoms: _312  and  _314
REMARK  130  A    between atoms: _314  and  _315
REMARK  131  A    between atoms: _318  and  _320
REMARK  132  A    between atoms: _320  and  _321
REMARK  133  A    between atoms: _320  and  _323
REMARK  134  A    between atoms: _323  and  _324
REMARK  135  A    between atoms: _326  and  _328
REMARK  136  A    between atoms: _328  and  _329
REMARK  137  A    between atoms: _328  and  _331
REMARK                            x       y       z     vdW  Elec       q    Type
REMARK                         _______ _______ _______ _____ _____    ______ ____
ROOT
ATOM      1  O   HOH     1      33.887  -9.449  19.128  0.00  0.00    +0.000 OA
ENDROOT
TORSDOF 0
REMARK  Name = ../refined-set-2016/3d6q/3d6q_pocket.pdb
REMARK  137 active torsions:
REMARK  status: ('A' for Active; 'I' for Inactive)
REMARK    1  A    between atoms: _1  and  _3
REMARK    2  A    between atoms: _3  and  _4
REMARK    3  A    between atoms: _3  and  _6
REMARK    4  A    between atoms: _6  and  _7
REMARK    5  A    between atoms: _7  and  _8
REMARK    6  A    between atoms: _8  and  _9
REMARK    7  A    between atoms: _9  and  _10
REMARK    8  A    between atoms: _14  and  _16
REMARK    9  A    between atoms: _16  and  _17
REMARK   10  A    between atoms: _16  and  _19
REMARK   11  A    between atoms: _19  and  _20
REMARK   12  A    between atoms: _26  and  _28
REMARK   13  A    between atoms: _28  and  _29
REMARK   14  A    between atoms: _28  and  _31
REMARK   15  A    between atoms: _31  and  _32
REMARK   16  A    between atoms: _32  and  _33
REMARK   17  A    between atoms: _38  and  _40
REMARK   18  A    between atoms: _40  and  _41
REMARK   19  A    between atoms: _40  and  _43
REMARK   20  A    between atoms: _43  and  _44
REMARK   21  A    between atoms: _49  and  _51
REMARK   22  A    between atoms: _51  and  _52
REMARK   23  A    between atoms: _51  and  _54
REMARK   24  A    between atoms: _54  and  _55
REMARK   25  A    between atoms: _55  and  _56
REMARK   26  A    between atoms: _58  and  _60
REMARK   27  A    between atoms: _60  and  _61
REMARK   28  A    between atoms: _60  and  _63
REMARK   29  A    between atoms: _63  and  _64
REMARK   30  A    between atoms: _67  and  _69
REMARK   31  A    between atoms: _69  and  _70
REMARK   32  A    between atoms: _69  and  _72
REMARK   33  A    between atoms: _72  and  _73
REMARK   34  A    between atoms: _73  and  _74
REMARK   35  A    between atoms: _74  and  _75
REMARK   36  A    between atoms: _84  and  _86
REMARK   37  A    between atoms: _86  and  _87
REMARK   38  A    between atoms: _86  and  _89
REMARK   39  A    between atoms: _89  and  _90
REMARK   40  A    between atoms: _90  and  _91
REMARK   41  A    between atoms: _91  and  _92
REMARK   42  A    between atoms: _92  and  _93
REMARK   43  A    between atoms: _98  and  _99
REMARK   44  A    between atoms: _104  and  _106
REMARK   45  A    between atoms: _106  and  _107
REMARK   46  A    between atoms: _106  and  _109
REMARK   47  A    between atoms: _112  and  _114
REMARK   48  A    between atoms: _114  and  _115
REMARK   49  A    between atoms: _114  and  _117
REMARK   50  A    between atoms: _117  and  _118
REMARK   51  A    between atoms: _123  and  _125
REMARK   52  A    between atoms: _125  and  _126
REMARK   53  A    between atoms: _125  and  _128
REMARK   54  A    between atoms: _128  and  _129
REMARK   55  A    between atoms: _132  and  _134
REMARK   56  A    between atoms: _134  and  _135
REMARK   57  A    between atoms: _134  and  _137
REMARK   58  A    between atoms: _137  and  _138
REMARK   59  A    between atoms: _144  and  _146
REMARK   60  A    between atoms: _146  and  _147
REMARK   61  A    between atoms: _146  and  _149
REMARK   62  A    between atoms: _152  and  _154
REMARK   63  A    between atoms: _154  and  _155
REMARK   64  A    between atoms: _154  and  _157
REMARK   65  A    between atoms: _157  and  _158
REMARK   66  A    between atoms: _158  and  _159
REMARK   67  A    between atoms: _159  and  _160
REMARK   68  A    between atoms: _160  and  _161
REMARK   69  A    between atoms: _165  and  _167
REMARK   70  A    between atoms: _167  and  _168
REMARK   71  A    between atoms: _167  and  _170
REMARK   72  A    between atoms: _170  and  _171
REMARK   73  A    between atoms: _176  and  _178
REMARK   74  A    between atoms: _178  and  _179
REMARK   75  A    between atoms: _178  and  _181
REMARK   76  A    between atoms: _181  and  _182
REMARK   77  A    between atoms: _185  and  _187
REMARK   78  A    between atoms: _187  and  _188
REMARK   79  A    between atoms: _187  and  _190
REMARK   80  A    between atoms: _190  and  _191
REMARK   81  A    between atoms: _194  and  _196
REMARK   82  A    between atoms: _196  and  _197
REMARK   83  A    between atoms: _196  and  _199
REMARK   84  A    between atoms: _199  and  _200
REMARK   85  A    between atoms: _203  and  _205
REMARK   86  A    between atoms: _205  and  _206
REMARK   87  A    between atoms: _205  and  _208
REMARK   88  A    between atoms: _210  and  _212
REMARK   89  A    between atoms: _212  and  _213
REMARK   90  A    between atoms: _212  and  _215
REMARK   91  A    between atoms: _215  and  _216
REMARK   92  A    between atoms: _216  and  _217
REMARK   93  A    between atoms: _217  and  _218
REMARK   94  A    between atoms: _227  and  _229
REMARK   95  A    between atoms: _229  and  _230
REMARK   96  A    between atoms: _229  and  _232
REMARK   97  A    between atoms: _232  and  _233
REMARK   98  A    between atoms: _233  and  _234
REMARK   99  A    between atoms: _234  and  _235
REMARK  100  A    between atoms: _235  and  _236
REMARK  101  A    between atoms: _240  and  _242
REMARK  102  A    between atoms: _242  and  _243
REMARK  103  A    between atoms: _242  and  _245
REMARK  104  A    between atoms: _245  and  _246
REMARK  105  A    between atoms: _249  and  _251
REMARK  106  A    between atoms: _251  and  _252
REMARK  107  A    between atoms: _251  and  _254
REMARK  108  A    between atoms: _254  and  _255
REMARK  109  A    between atoms: _258  and  _260
REMARK  110  A    between atoms: _260  and  _261
REMARK  111  A    between atoms: _260  and  _263
REMARK  112  A    between atoms: _266  and  _268
REMARK  113  A    between atoms: _268  and  _269
REMARK  114  A    between atoms: _272  and  _274
REMARK  115  A    between atoms: _274  and  _275
REMARK  116  A    between atoms: _274  and  _277
REMARK  117  A    between atoms: _280  and  _282
REMARK  118  A    between atoms: _282  and  _283
REMARK  119  A    between atoms: _282  and  _285
REMARK  120  A    between atoms: _285  and  _286
REMARK  121  A    between atoms: _291  and  _293
REMARK  122  A    between atoms: _293  and  _294
REMARK  123  A    between atoms: _293  and  _296
REMARK  124  A    between atoms: _296  and  _297
REMARK  125  A    between atoms: _303  and  _305
REMARK  126  A    between atoms: _305  and  _306
REMARK  127  A    between atoms: _305  and  _308
REMARK  128  A    between atoms: _308  and  _309
REMARK  129  A    between atoms: _312  and  _314
REMARK  130  A    between atoms: _314  and  _315
REMARK  131  A    between atoms: _318  and  _320
REMARK  132  A    between atoms: _320  and  _321
REMARK  133  A    between atoms: _320  and  _323
REMARK  134  A    between atoms: _323  and  _324
REMARK  135  A    between atoms: _326  and  _328
REMARK  136  A    between atoms: _328  and  _329
REMARK  137  A    between atoms: _328  and  _331
REMARK                            x       y       z     vdW  Elec       q    Type
REMARK                         _______ _______ _______ _____ _____    ______ ____
ROOT
ATOM      1  O   HOH     1      36.254   2.039  21.323  0.00  0.00    +0.000 OA
ENDROOT
TORSDOF 0
REMARK  Name = ../refined-set-2016/3d6q/3d6q_pocket.pdb
REMARK  137 active torsions:
REMARK  status: ('A' for Active; 'I' for Inactive)
REMARK    1  A    between atoms: _1  and  _3
REMARK    2  A    between atoms: _3  and  _4
REMARK    3  A    between atoms: _3  and  _6
REMARK    4  A    between atoms: _6  and  _7
REMARK    5  A    between atoms: _7  and  _8
REMARK    6  A    between atoms: _8  and  _9
REMARK    7  A    between atoms: _9  and  _10
REMARK    8  A    between atoms: _14  and  _16
REMARK    9  A    between atoms: _16  and  _17
REMARK   10  A    between atoms: _16  and  _19
REMARK   11  A    between atoms: _19  and  _20
REMARK   12  A    between atoms: _26  and  _28
REMARK   13  A    between atoms: _28  and  _29
REMARK   14  A    between atoms: _28  and  _31
REMARK   15  A    between atoms: _31  and  _32
REMARK   16  A    between atoms: _32  and  _33
REMARK   17  A    between atoms: _38  and  _40
REMARK   18  A    between atoms: _40  and  _41
REMARK   19  A    between atoms: _40  and  _43
REMARK   20  A    between atoms: _43  and  _44
REMARK   21  A    between atoms: _49  and  _51
REMARK   22  A    between atoms: _51  and  _52
REMARK   23  A    between atoms: _51  and  _54
REMARK   24  A    between atoms: _54  and  _55
REMARK   25  A    between atoms: _55  and  _56
REMARK   26  A    between atoms: _58  and  _60
REMARK   27  A    between atoms: _60  and  _61
REMARK   28  A    between atoms: _60  and  _63
REMARK   29  A    between atoms: _63  and  _64
REMARK   30  A    between atoms: _67  and  _69
REMARK   31  A    between atoms: _69  and  _70
REMARK   32  A    between atoms: _69  and  _72
REMARK   33  A    between atoms: _72  and  _73
REMARK   34  A    between atoms: _73  and  _74
REMARK   35  A    between atoms: _74  and  _75
REMARK   36  A    between atoms: _84  and  _86
REMARK   37  A    between atoms: _86  and  _87
REMARK   38  A    between atoms: _86  and  _89
REMARK   39  A    between atoms: _89  and  _90
REMARK   40  A    between atoms: _90  and  _91
REMARK   41  A    between atoms: _91  and  _92
REMARK   42  A    between atoms: _92  and  _93
REMARK   43  A    between atoms: _98  and  _99
REMARK   44  A    between atoms: _104  and  _106
REMARK   45  A    between atoms: _106  and  _107
REMARK   46  A    between atoms: _106  and  _109
REMARK   47  A    between atoms: _112  and  _114
REMARK   48  A    between atoms: _114  and  _115
REMARK   49  A    between atoms: _114  and  _117
REMARK   50  A    between atoms: _117  and  _118
REMARK   51  A    between atoms: _123  and  _125
REMARK   52  A    between atoms: _125  and  _126
REMARK   53  A    between atoms: _125  and  _128
REMARK   54  A    between atoms: _128  and  _129
REMARK   55  A    between atoms: _132  and  _134
REMARK   56  A    between atoms: _134  and  _135
REMARK   57  A    between atoms: _134  and  _137
REMARK   58  A    between atoms: _137  and  _138
REMARK   59  A    between atoms: _144  and  _146
REMARK   60  A    between atoms: _146  and  _147
REMARK   61  A    between atoms: _146  and  _149
REMARK   62  A    between atoms: _152  and  _154
REMARK   63  A    between atoms: _154  and  _155
REMARK   64  A    between atoms: _154  and  _157
REMARK   65  A    between atoms: _157  and  _158
REMARK   66  A    between atoms: _158  and  _159
REMARK   67  A    between atoms: _159  and  _160
REMARK   68  A    between atoms: _160  and  _161
REMARK   69  A    between atoms: _165  and  _167
REMARK   70  A    between atoms: _167  and  _168
REMARK   71  A    between atoms: _167  and  _170
REMARK   72  A    between atoms: _170  and  _171
REMARK   73  A    between atoms: _176  and  _178
REMARK   74  A    between atoms: _178  and  _179
REMARK   75  A    between atoms: _178  and  _181
REMARK   76  A    between atoms: _181  and  _182
REMARK   77  A    between atoms: _185  and  _187
REMARK   78  A    between atoms: _187  and  _188
REMARK   79  A    between atoms: _187  and  _190
REMARK   80  A    between atoms: _190  and  _191
REMARK   81  A    between atoms: _194  and  _196
REMARK   82  A    between atoms: _196  and  _197
REMARK   83  A    between atoms: _196  and  _199
REMARK   84  A    between atoms: _199  and  _200
REMARK   85  A    between atoms: _203  and  _205
REMARK   86  A    between atoms: _205  and  _206
REMARK   87  A    between atoms: _205  and  _208
REMARK   88  A    between atoms: _210  and  _212
REMARK   89  A    between atoms: _212  and  _213
REMARK   90  A    between atoms: _212  and  _215
REMARK   91  A    between atoms: _215  and  _216
REMARK   92  A    between atoms: _216  and  _217
REMARK   93  A    between atoms: _217  and  _218
REMARK   94  A    between atoms: _227  and  _229
REMARK   95  A    between atoms: _229  and  _230
REMARK   96  A    between atoms: _229  and  _232
REMARK   97  A    between atoms: _232  and  _233
REMARK   98  A    between atoms: _233  and  _234
REMARK   99  A    between atoms: _234  and  _235
REMARK  100  A    between atoms: _235  and  _236
REMARK  101  A    between atoms: _240  and  _242
REMARK  102  A    between atoms: _242  and  _243
REMARK  103  A    between atoms: _242  and  _245
REMARK  104  A    between atoms: _245  and  _246
REMARK  105  A    between atoms: _249  and  _251
REMARK  106  A    between atoms: _251  and  _252
REMARK  107  A    between atoms: _251  and  _254
REMARK  108  A    between atoms: _254  and  _255
REMARK  109  A    between atoms: _258  and  _260
REMARK  110  A    between atoms: _260  and  _261
REMARK  111  A    between atoms: _260  and  _263
REMARK  112  A    between atoms: _266  and  _268
REMARK  113  A    between atoms: _268  and  _269
REMARK  114  A    between atoms: _272  and  _274
REMARK  115  A    between atoms: _274  and  _275
REMARK  116  A    between atoms: _274  and  _277
REMARK  117  A    between atoms: _280  and  _282
REMARK  118  A    between atoms: _282  and  _283
REMARK  119  A    between atoms: _282  and  _285
REMARK  120  A    between atoms: _285  and  _286
REMARK  121  A    between atoms: _291  and  _293
REMARK  122  A    between atoms: _293  and  _294
REMARK  123  A    between atoms: _293  and  _296
REMARK  124  A    between atoms: _296  and  _297
REMARK  125  A    between atoms: _303  and  _305
REMARK  126  A    between atoms: _305  and  _306
REMARK  127  A    between atoms: _305  and  _308
REMARK  128  A    between atoms: _308  and  _309
REMARK  129  A    between atoms: _312  and  _314
REMARK  130  A    between atoms: _314  and  _315
REMARK  131  A    between atoms: _318  and  _320
REMARK  132  A    between atoms: _320  and  _321
REMARK  133  A    between atoms: _320  and  _323
REMARK  134  A    between atoms: _323  and  _324
REMARK  135  A    between atoms: _326  and  _328
REMARK  136  A    between atoms: _328  and  _329
REMARK  137  A    between atoms: _328  and  _331
REMARK                            x       y       z     vdW  Elec       q    Type
REMARK                         _______ _______ _______ _____ _____    ______ ____
ROOT
ATOM      1  O   HOH     1      39.697  -0.659  19.883  0.00  0.00    +0.000 OA
ENDROOT
TORSDOF 0
REMARK  Name = ../refined-set-2016/3d6q/3d6q_pocket.pdb
REMARK  137 active torsions:
REMARK  status: ('A' for Active; 'I' for Inactive)
REMARK    1  A    between atoms: _1  and  _3
REMARK    2  A    between atoms: _3  and  _4
REMARK    3  A    between atoms: _3  and  _6
REMARK    4  A    between atoms: _6  and  _7
REMARK    5  A    between atoms: _7  and  _8
REMARK    6  A    between atoms: _8  and  _9
REMARK    7  A    between atoms: _9  and  _10
REMARK    8  A    between atoms: _14  and  _16
REMARK    9  A    between atoms: _16  and  _17
REMARK   10  A    between atoms: _16  and  _19
REMARK   11  A    between atoms: _19  and  _20
REMARK   12  A    between atoms: _26  and  _28
REMARK   13  A    between atoms: _28  and  _29
REMARK   14  A    between atoms: _28  and  _31
REMARK   15  A    between atoms: _31  and  _32
REMARK   16  A    between atoms: _32  and  _33
REMARK   17  A    between atoms: _38  and  _40
REMARK   18  A    between atoms: _40  and  _41
REMARK   19  A    between atoms: _40  and  _43
REMARK   20  A    between atoms: _43  and  _44
REMARK   21  A    between atoms: _49  and  _51
REMARK   22  A    between atoms: _51  and  _52
REMARK   23  A    between atoms: _51  and  _54
REMARK   24  A    between atoms: _54  and  _55
REMARK   25  A    between atoms: _55  and  _56
REMARK   26  A    between atoms: _58  and  _60
REMARK   27  A    between atoms: _60  and  _61
REMARK   28  A    between atoms: _60  and  _63
REMARK   29  A    between atoms: _63  and  _64
REMARK   30  A    between atoms: _67  and  _69
REMARK   31  A    between atoms: _69  and  _70
REMARK   32  A    between atoms: _69  and  _72
REMARK   33  A    between atoms: _72  and  _73
REMARK   34  A    between atoms: _73  and  _74
REMARK   35  A    between atoms: _74  and  _75
REMARK   36  A    between atoms: _84  and  _86
REMARK   37  A    between atoms: _86  and  _87
REMARK   38  A    between atoms: _86  and  _89
REMARK   39  A    between atoms: _89  and  _90
REMARK   40  A    between atoms: _90  and  _91
REMARK   41  A    between atoms: _91  and  _92
REMARK   42  A    between atoms: _92  and  _93
REMARK   43  A    between atoms: _98  and  _99
REMARK   44  A    between atoms: _104  and  _106
REMARK   45  A    between atoms: _106  and  _107
REMARK   46  A    between atoms: _106  and  _109
REMARK   47  A    between atoms: _112  and  _114
REMARK   48  A    between atoms: _114  and  _115
REMARK   49  A    between atoms: _114  and  _117
REMARK   50  A    between atoms: _117  and  _118
REMARK   51  A    between atoms: _123  and  _125
REMARK   52  A    between atoms: _125  and  _126
REMARK   53  A    between atoms: _125  and  _128
REMARK   54  A    between atoms: _128  and  _129
REMARK   55  A    between atoms: _132  and  _134
REMARK   56  A    between atoms: _134  and  _135
REMARK   57  A    between atoms: _134  and  _137
REMARK   58  A    between atoms: _137  and  _138
REMARK   59  A    between atoms: _144  and  _146
REMARK   60  A    between atoms: _146  and  _147
REMARK   61  A    between atoms: _146  and  _149
REMARK   62  A    between atoms: _152  and  _154
REMARK   63  A    between atoms: _154  and  _155
REMARK   64  A    between atoms: _154  and  _157
REMARK   65  A    between atoms: _157  and  _158
REMARK   66  A    between atoms: _158  and  _159
REMARK   67  A    between atoms: _159  and  _160
REMARK   68  A    between atoms: _160  and  _161
REMARK   69  A    between atoms: _165  and  _167
REMARK   70  A    between atoms: _167  and  _168
REMARK   71  A    between atoms: _167  and  _170
REMARK   72  A    between atoms: _170  and  _171
REMARK   73  A    between atoms: _176  and  _178
REMARK   74  A    between atoms: _178  and  _179
REMARK   75  A    between atoms: _178  and  _181
REMARK   76  A    between atoms: _181  and  _182
REMARK   77  A    between atoms: _185  and  _187
REMARK   78  A    between atoms: _187  and  _188
REMARK   79  A    between atoms: _187  and  _190
REMARK   80  A    between atoms: _190  and  _191
REMARK   81  A    between atoms: _194  and  _196
REMARK   82  A    between atoms: _196  and  _197
REMARK   83  A    between atoms: _196  and  _199
REMARK   84  A    between atoms: _199  and  _200
REMARK   85  A    between atoms: _203  and  _205
REMARK   86  A    between atoms: _205  and  _206
REMARK   87  A    between atoms: _205  and  _208
REMARK   88  A    between atoms: _210  and  _212
REMARK   89  A    between atoms: _212  and  _213
REMARK   90  A    between atoms: _212  and  _215
REMARK   91  A    between atoms: _215  and  _216
REMARK   92  A    between atoms: _216  and  _217
REMARK   93  A    between atoms: _217  and  _218
REMARK   94  A    between atoms: _227  and  _229
REMARK   95  A    between atoms: _229  and  _230
REMARK   96  A    between atoms: _229  and  _232
REMARK   97  A    between atoms: _232  and  _233
REMARK   98  A    between atoms: _233  and  _234
REMARK   99  A    between atoms: _234  and  _235
REMARK  100  A    between atoms: _235  and  _236
REMARK  101  A    between atoms: _240  and  _242
REMARK  102  A    between atoms: _242  and  _243
REMARK  103  A    between atoms: _242  and  _245
REMARK  104  A    between atoms: _245  and  _246
REMARK  105  A    between atoms: _249  and  _251
REMARK  106  A    between atoms: _251  and  _252
REMARK  107  A    between atoms: _251  and  _254
REMARK  108  A    between atoms: _254  and  _255
REMARK  109  A    between atoms: _258  and  _260
REMARK  110  A    between atoms: _260  and  _261
REMARK  111  A    between atoms: _260  and  _263
REMARK  112  A    between atoms: _266  and  _268
REMARK  113  A    between atoms: _268  and  _269
REMARK  114  A    between atoms: _272  and  _274
REMARK  115  A    between atoms: _274  and  _275
REMARK  116  A    between atoms: _274  and  _277
REMARK  117  A    between atoms: _280  and  _282
REMARK  118  A    between atoms: _282  and  _283
REMARK  119  A    between atoms: _282  and  _285
REMARK  120  A    between atoms: _285  and  _286
REMARK  121  A    between atoms: _291  and  _293
REMARK  122  A    between atoms: _293  and  _294
REMARK  123  A    between atoms: _293  and  _296
REMARK  124  A    between atoms: _296  and  _297
REMARK  125  A    between atoms: _303  and  _305
REMARK  126  A    between atoms: _305  and  _306
REMARK  127  A    between atoms: _305  and  _308
REMARK  128  A    between atoms: _308  and  _309
REMARK  129  A    between atoms: _312  and  _314
REMARK  130  A    between atoms: _314  and  _315
REMARK  131  A    between atoms: _318  and  _320
REMARK  132  A    between atoms: _320  and  _321
REMARK  133  A    between atoms: _320  and  _323
REMARK  134  A    between atoms: _323  and  _324
REMARK  135  A    between atoms: _326  and  _328
REMARK  136  A    between atoms: _328  and  _329
REMARK  137  A    between atoms: _328  and  _331
REMARK                            x       y       z     vdW  Elec       q    Type
REMARK                         _______ _______ _______ _____ _____    ______ ____
ROOT
ATOM      1  O   HOH     1      45.916  -2.536  11.432  0.00  0.00    +0.000 OA
ENDROOT
TORSDOF 0
REMARK  Name = ../refined-set-2016/3d6q/3d6q_pocket.pdb
REMARK  137 active torsions:
REMARK  status: ('A' for Active; 'I' for Inactive)
REMARK    1  A    between atoms: _1  and  _3
REMARK    2  A    between atoms: _3  and  _4
REMARK    3  A    between atoms: _3  and  _6
REMARK    4  A    between atoms: _6  and  _7
REMARK    5  A    between atoms: _7  and  _8
REMARK    6  A    between atoms: _8  and  _9
REMARK    7  A    between atoms: _9  and  _10
REMARK    8  A    between atoms: _14  and  _16
REMARK    9  A    between atoms: _16  and  _17
REMARK   10  A    between atoms: _16  and  _19
REMARK   11  A    between atoms: _19  and  _20
REMARK   12  A    between atoms: _26  and  _28
REMARK   13  A    between atoms: _28  and  _29
REMARK   14  A    between atoms: _28  and  _31
REMARK   15  A    between atoms: _31  and  _32
REMARK   16  A    between atoms: _32  and  _33
REMARK   17  A    between atoms: _38  and  _40
REMARK   18  A    between atoms: _40  and  _41
REMARK   19  A    between atoms: _40  and  _43
REMARK   20  A    between atoms: _43  and  _44
REMARK   21  A    between atoms: _49  and  _51
REMARK   22  A    between atoms: _51  and  _52
REMARK   23  A    between atoms: _51  and  _54
REMARK   24  A    between atoms: _54  and  _55
REMARK   25  A    between atoms: _55  and  _56
REMARK   26  A    between atoms: _58  and  _60
REMARK   27  A    between atoms: _60  and  _61
REMARK   28  A    between atoms: _60  and  _63
REMARK   29  A    between atoms: _63  and  _64
REMARK   30  A    between atoms: _67  and  _69
REMARK   31  A    between atoms: _69  and  _70
REMARK   32  A    between atoms: _69  and  _72
REMARK   33  A    between atoms: _72  and  _73
REMARK   34  A    between atoms: _73  and  _74
REMARK   35  A    between atoms: _74  and  _75
REMARK   36  A    between atoms: _84  and  _86
REMARK   37  A    between atoms: _86  and  _87
REMARK   38  A    between atoms: _86  and  _89
REMARK   39  A    between atoms: _89  and  _90
REMARK   40  A    between atoms: _90  and  _91
REMARK   41  A    between atoms: _91  and  _92
REMARK   42  A    between atoms: _92  and  _93
REMARK   43  A    between atoms: _98  and  _99
REMARK   44  A    between atoms: _104  and  _106
REMARK   45  A    between atoms: _106  and  _107
REMARK   46  A    between atoms: _106  and  _109
REMARK   47  A    between atoms: _112  and  _114
REMARK   48  A    between atoms: _114  and  _115
REMARK   49  A    between atoms: _114  and  _117
REMARK   50  A    between atoms: _117  and  _118
REMARK   51  A    between atoms: _123  and  _125
REMARK   52  A    between atoms: _125  and  _126
REMARK   53  A    between atoms: _125  and  _128
REMARK   54  A    between atoms: _128  and  _129
REMARK   55  A    between atoms: _132  and  _134
REMARK   56  A    between atoms: _134  and  _135
REMARK   57  A    between atoms: _134  and  _137
REMARK   58  A    between atoms: _137  and  _138
REMARK   59  A    between atoms: _144  and  _146
REMARK   60  A    between atoms: _146  and  _147
REMARK   61  A    between atoms: _146  and  _149
REMARK   62  A    between atoms: _152  and  _154
REMARK   63  A    between atoms: _154  and  _155
REMARK   64  A    between atoms: _154  and  _157
REMARK   65  A    between atoms: _157  and  _158
REMARK   66  A    between atoms: _158  and  _159
REMARK   67  A    between atoms: _159  and  _160
REMARK   68  A    between atoms: _160  and  _161
REMARK   69  A    between atoms: _165  and  _167
REMARK   70  A    between atoms: _167  and  _168
REMARK   71  A    between atoms: _167  and  _170
REMARK   72  A    between atoms: _170  and  _171
REMARK   73  A    between atoms: _176  and  _178
REMARK   74  A    between atoms: _178  and  _179
REMARK   75  A    between atoms: _178  and  _181
REMARK   76  A    between atoms: _181  and  _182
REMARK   77  A    between atoms: _185  and  _187
REMARK   78  A    between atoms: _187  and  _188
REMARK   79  A    between atoms: _187  and  _190
REMARK   80  A    between atoms: _190  and  _191
REMARK   81  A    between atoms: _194  and  _196
REMARK   82  A    between atoms: _196  and  _197
REMARK   83  A    between atoms: _196  and  _199
REMARK   84  A    between atoms: _199  and  _200
REMARK   85  A    between atoms: _203  and  _205
REMARK   86  A    between atoms: _205  and  _206
REMARK   87  A    between atoms: _205  and  _208
REMARK   88  A    between atoms: _210  and  _212
REMARK   89  A    between atoms: _212  and  _213
REMARK   90  A    between atoms: _212  and  _215
REMARK   91  A    between atoms: _215  and  _216
REMARK   92  A    between atoms: _216  and  _217
REMARK   93  A    between atoms: _217  and  _218
REMARK   94  A    between atoms: _227  and  _229
REMARK   95  A    between atoms: _229  and  _230
REMARK   96  A    between atoms: _229  and  _232
REMARK   97  A    between atoms: _232  and  _233
REMARK   98  A    between atoms: _233  and  _234
REMARK   99  A    between atoms: _234  and  _235
REMARK  100  A    between atoms: _235  and  _236
REMARK  101  A    between atoms: _240  and  _242
REMARK  102  A    between atoms: _242  and  _243
REMARK  103  A    between atoms: _242  and  _245
REMARK  104  A    between atoms: _245  and  _246
REMARK  105  A    between atoms: _249  and  _251
REMARK  106  A    between atoms: _251  and  _252
REMARK  107  A    between atoms: _251  and  _254
REMARK  108  A    between atoms: _254  and  _255
REMARK  109  A    between atoms: _258  and  _260
REMARK  110  A    between atoms: _260  and  _261
REMARK  111  A    between atoms: _260  and  _263
REMARK  112  A    between atoms: _266  and  _268
REMARK  113  A    between atoms: _268  and  _269
REMARK  114  A    between atoms: _272  and  _274
REMARK  115  A    between atoms: _274  and  _275
REMARK  116  A    between atoms: _274  and  _277
REMARK  117  A    between atoms: _280  and  _282
REMARK  118  A    between atoms: _282  and  _283
REMARK  119  A    between atoms: _282  and  _285
REMARK  120  A    between atoms: _285  and  _286
REMARK  121  A    between atoms: _291  and  _293
REMARK  122  A    between atoms: _293  and  _294
REMARK  123  A    between atoms: _293  and  _296
REMARK  124  A    between atoms: _296  and  _297
REMARK  125  A    between atoms: _303  and  _305
REMARK  126  A    between atoms: _305  and  _306
REMARK  127  A    between atoms: _305  and  _308
REMARK  128  A    between atoms: _308  and  _309
REMARK  129  A    between atoms: _312  and  _314
REMARK  130  A    between atoms: _314  and  _315
REMARK  131  A    between atoms: _318  and  _320
REMARK  132  A    between atoms: _320  and  _321
REMARK  133  A    between atoms: _320  and  _323
REMARK  134  A    between atoms: _323  and  _324
REMARK  135  A    between atoms: _326  and  _328
REMARK  136  A    between atoms: _328  and  _329
REMARK  137  A    between atoms: _328  and  _331
REMARK                            x       y       z     vdW  Elec       q    Type
REMARK                         _______ _______ _______ _____ _____    ______ ____
ROOT
ATOM      1  O   HOH     1      44.081  -6.230   9.129  0.00  0.00    +0.000 OA
ENDROOT
TORSDOF 0
REMARK  Name = ../refined-set-2016/3d6q/3d6q_pocket.pdb
REMARK  137 active torsions:
REMARK  status: ('A' for Active; 'I' for Inactive)
REMARK    1  A    between atoms: _1  and  _3
REMARK    2  A    between atoms: _3  and  _4
REMARK    3  A    between atoms: _3  and  _6
REMARK    4  A    between atoms: _6  and  _7
REMARK    5  A    between atoms: _7  and  _8
REMARK    6  A    between atoms: _8  and  _9
REMARK    7  A    between atoms: _9  and  _10
REMARK    8  A    between atoms: _14  and  _16
REMARK    9  A    between atoms: _16  and  _17
REMARK   10  A    between atoms: _16  and  _19
REMARK   11  A    between atoms: _19  and  _20
REMARK   12  A    between atoms: _26  and  _28
REMARK   13  A    between atoms: _28  and  _29
REMARK   14  A    between atoms: _28  and  _31
REMARK   15  A    between atoms: _31  and  _32
REMARK   16  A    between atoms: _32  and  _33
REMARK   17  A    between atoms: _38  and  _40
REMARK   18  A    between atoms: _40  and  _41
REMARK   19  A    between atoms: _40  and  _43
REMARK   20  A    between atoms: _43  and  _44
REMARK   21  A    between atoms: _49  and  _51
REMARK   22  A    between atoms: _51  and  _52
REMARK   23  A    between atoms: _51  and  _54
REMARK   24  A    between atoms: _54  and  _55
REMARK   25  A    between atoms: _55  and  _56
REMARK   26  A    between atoms: _58  and  _60
REMARK   27  A    between atoms: _60  and  _61
REMARK   28  A    between atoms: _60  and  _63
REMARK   29  A    between atoms: _63  and  _64
REMARK   30  A    between atoms: _67  and  _69
REMARK   31  A    between atoms: _69  and  _70
REMARK   32  A    between atoms: _69  and  _72
REMARK   33  A    between atoms: _72  and  _73
REMARK   34  A    between atoms: _73  and  _74
REMARK   35  A    between atoms: _74  and  _75
REMARK   36  A    between atoms: _84  and  _86
REMARK   37  A    between atoms: _86  and  _87
REMARK   38  A    between atoms: _86  and  _89
REMARK   39  A    between atoms: _89  and  _90
REMARK   40  A    between atoms: _90  and  _91
REMARK   41  A    between atoms: _91  and  _92
REMARK   42  A    between atoms: _92  and  _93
REMARK   43  A    between atoms: _98  and  _99
REMARK   44  A    between atoms: _104  and  _106
REMARK   45  A    between atoms: _106  and  _107
REMARK   46  A    between atoms: _106  and  _109
REMARK   47  A    between atoms: _112  and  _114
REMARK   48  A    between atoms: _114  and  _115
REMARK   49  A    between atoms: _114  and  _117
REMARK   50  A    between atoms: _117  and  _118
REMARK   51  A    between atoms: _123  and  _125
REMARK   52  A    between atoms: _125  and  _126
REMARK   53  A    between atoms: _125  and  _128
REMARK   54  A    between atoms: _128  and  _129
REMARK   55  A    between atoms: _132  and  _134
REMARK   56  A    between atoms: _134  and  _135
REMARK   57  A    between atoms: _134  and  _137
REMARK   58  A    between atoms: _137  and  _138
REMARK   59  A    between atoms: _144  and  _146
REMARK   60  A    between atoms: _146  and  _147
REMARK   61  A    between atoms: _146  and  _149
REMARK   62  A    between atoms: _152  and  _154
REMARK   63  A    between atoms: _154  and  _155
REMARK   64  A    between atoms: _154  and  _157
REMARK   65  A    between atoms: _157  and  _158
REMARK   66  A    between atoms: _158  and  _159
REMARK   67  A    between atoms: _159  and  _160
REMARK   68  A    between atoms: _160  and  _161
REMARK   69  A    between atoms: _165  and  _167
REMARK   70  A    between atoms: _167  and  _168
REMARK   71  A    between atoms: _167  and  _170
REMARK   72  A    between atoms: _170  and  _171
REMARK   73  A    between atoms: _176  and  _178
REMARK   74  A    between atoms: _178  and  _179
REMARK   75  A    between atoms: _178  and  _181
REMARK   76  A    between atoms: _181  and  _182
REMARK   77  A    between atoms: _185  and  _187
REMARK   78  A    between atoms: _187  and  _188
REMARK   79  A    between atoms: _187  and  _190
REMARK   80  A    between atoms: _190  and  _191
REMARK   81  A    between atoms: _194  and  _196
REMARK   82  A    between atoms: _196  and  _197
REMARK   83  A    between atoms: _196  and  _199
REMARK   84  A    between atoms: _199  and  _200
REMARK   85  A    between atoms: _203  and  _205
REMARK   86  A    between atoms: _205  and  _206
REMARK   87  A    between atoms: _205  and  _208
REMARK   88  A    between atoms: _210  and  _212
REMARK   89  A    between atoms: _212  and  _213
REMARK   90  A    between atoms: _212  and  _215
REMARK   91  A    between atoms: _215  and  _216
REMARK   92  A    between atoms: _216  and  _217
REMARK   93  A    between atoms: _217  and  _218
REMARK   94  A    between atoms: _227  and  _229
REMARK   95  A    between atoms: _229  and  _230
REMARK   96  A    between atoms: _229  and  _232
REMARK   97  A    between atoms: _232  and  _233
REMARK   98  A    between atoms: _233  and  _234
REMARK   99  A    between atoms: _234  and  _235
REMARK  100  A    between atoms: _235  and  _236
REMARK  101  A    between atoms: _240  and  _242
REMARK  102  A    between atoms: _242  and  _243
REMARK  103  A    between atoms: _242  and  _245
REMARK  104  A    between atoms: _245  and  _246
REMARK  105  A    between atoms: _249  and  _251
REMARK  106  A    between atoms: _251  and  _252
REMARK  107  A    between atoms: _251  and  _254
REMARK  108  A    between atoms: _254  and  _255
REMARK  109  A    between atoms: _258  and  _260
REMARK  110  A    between atoms: _260  and  _261
REMARK  111  A    between atoms: _260  and  _263
REMARK  112  A    between atoms: _266  and  _268
REMARK  113  A    between atoms: _268  and  _269
REMARK  114  A    between atoms: _272  and  _274
REMARK  115  A    between atoms: _274  and  _275
REMARK  116  A    between atoms: _274  and  _277
REMARK  117  A    between atoms: _280  and  _282
REMARK  118  A    between atoms: _282  and  _283
REMARK  119  A    between atoms: _282  and  _285
REMARK  120  A    between atoms: _285  and  _286
REMARK  121  A    between atoms: _291  and  _293
REMARK  122  A    between atoms: _293  and  _294
REMARK  123  A    between atoms: _293  and  _296
REMARK  124  A    between atoms: _296  and  _297
REMARK  125  A    between atoms: _303  and  _305
REMARK  126  A    between atoms: _305  and  _306
REMARK  127  A    between atoms: _305  and  _308
REMARK  128  A    between atoms: _308  and  _309
REMARK  129  A    between atoms: _312  and  _314
REMARK  130  A    between atoms: _314  and  _315
REMARK  131  A    between atoms: _318  and  _320
REMARK  132  A    between atoms: _320  and  _321
REMARK  133  A    between atoms: _320  and  _323
REMARK  134  A    between atoms: _323  and  _324
REMARK  135  A    between atoms: _326  and  _328
REMARK  136  A    between atoms: _328  and  _329
REMARK  137  A    between atoms: _328  and  _331
REMARK                            x       y       z     vdW  Elec       q    Type
REMARK                         _______ _______ _______ _____ _____    ______ ____
ROOT
ATOM      1  O   HOH     1      38.003   3.846  20.443  0.00  0.00    +0.000 OA
ENDROOT
TORSDOF 0
REMARK  Name = ../refined-set-2016/3d6q/3d6q_pocket.pdb
REMARK  137 active torsions:
REMARK  status: ('A' for Active; 'I' for Inactive)
REMARK    1  A    between atoms: _1  and  _3
REMARK    2  A    between atoms: _3  and  _4
REMARK    3  A    between atoms: _3  and  _6
REMARK    4  A    between atoms: _6  and  _7
REMARK    5  A    between atoms: _7  and  _8
REMARK    6  A    between atoms: _8  and  _9
REMARK    7  A    between atoms: _9  and  _10
REMARK    8  A    between atoms: _14  and  _16
REMARK    9  A    between atoms: _16  and  _17
REMARK   10  A    between atoms: _16  and  _19
REMARK   11  A    between atoms: _19  and  _20
REMARK   12  A    between atoms: _26  and  _28
REMARK   13  A    between atoms: _28  and  _29
REMARK   14  A    between atoms: _28  and  _31
REMARK   15  A    between atoms: _31  and  _32
REMARK   16  A    between atoms: _32  and  _33
REMARK   17  A    between atoms: _38  and  _40
REMARK   18  A    between atoms: _40  and  _41
REMARK   19  A    between atoms: _40  and  _43
REMARK   20  A    between atoms: _43  and  _44
REMARK   21  A    between atoms: _49  and  _51
REMARK   22  A    between atoms: _51  and  _52
REMARK   23  A    between atoms: _51  and  _54
REMARK   24  A    between atoms: _54  and  _55
REMARK   25  A    between atoms: _55  and  _56
REMARK   26  A    between atoms: _58  and  _60
REMARK   27  A    between atoms: _60  and  _61
REMARK   28  A    between atoms: _60  and  _63
REMARK   29  A    between atoms: _63  and  _64
REMARK   30  A    between atoms: _67  and  _69
REMARK   31  A    between atoms: _69  and  _70
REMARK   32  A    between atoms: _69  and  _72
REMARK   33  A    between atoms: _72  and  _73
REMARK   34  A    between atoms: _73  and  _74
REMARK   35  A    between atoms: _74  and  _75
REMARK   36  A    between atoms: _84  and  _86
REMARK   37  A    between atoms: _86  and  _87
REMARK   38  A    between atoms: _86  and  _89
REMARK   39  A    between atoms: _89  and  _90
REMARK   40  A    between atoms: _90  and  _91
REMARK   41  A    between atoms: _91  and  _92
REMARK   42  A    between atoms: _92  and  _93
REMARK   43  A    between atoms: _98  and  _99
REMARK   44  A    between atoms: _104  and  _106
REMARK   45  A    between atoms: _106  and  _107
REMARK   46  A    between atoms: _106  and  _109
REMARK   47  A    between atoms: _112  and  _114
REMARK   48  A    between atoms: _114  and  _115
REMARK   49  A    between atoms: _114  and  _117
REMARK   50  A    between atoms: _117  and  _118
REMARK   51  A    between atoms: _123  and  _125
REMARK   52  A    between atoms: _125  and  _126
REMARK   53  A    between atoms: _125  and  _128
REMARK   54  A    between atoms: _128  and  _129
REMARK   55  A    between atoms: _132  and  _134
REMARK   56  A    between atoms: _134  and  _135
REMARK   57  A    between atoms: _134  and  _137
REMARK   58  A    between atoms: _137  and  _138
REMARK   59  A    between atoms: _144  and  _146
REMARK   60  A    between atoms: _146  and  _147
REMARK   61  A    between atoms: _146  and  _149
REMARK   62  A    between atoms: _152  and  _154
REMARK   63  A    between atoms: _154  and  _155
REMARK   64  A    between atoms: _154  and  _157
REMARK   65  A    between atoms: _157  and  _158
REMARK   66  A    between atoms: _158  and  _159
REMARK   67  A    between atoms: _159  and  _160
REMARK   68  A    between atoms: _160  and  _161
REMARK   69  A    between atoms: _165  and  _167
REMARK   70  A    between atoms: _167  and  _168
REMARK   71  A    between atoms: _167  and  _170
REMARK   72  A    between atoms: _170  and  _171
REMARK   73  A    between atoms: _176  and  _178
REMARK   74  A    between atoms: _178  and  _179
REMARK   75  A    between atoms: _178  and  _181
REMARK   76  A    between atoms: _181  and  _182
REMARK   77  A    between atoms: _185  and  _187
REMARK   78  A    between atoms: _187  and  _188
REMARK   79  A    between atoms: _187  and  _190
REMARK   80  A    between atoms: _190  and  _191
REMARK   81  A    between atoms: _194  and  _196
REMARK   82  A    between atoms: _196  and  _197
REMARK   83  A    between atoms: _196  and  _199
REMARK   84  A    between atoms: _199  and  _200
REMARK   85  A    between atoms: _203  and  _205
REMARK   86  A    between atoms: _205  and  _206
REMARK   87  A    between atoms: _205  and  _208
REMARK   88  A    between atoms: _210  and  _212
REMARK   89  A    between atoms: _212  and  _213
REMARK   90  A    between atoms: _212  and  _215
REMARK   91  A    between atoms: _215  and  _216
REMARK   92  A    between atoms: _216  and  _217
REMARK   93  A    between atoms: _217  and  _218
REMARK   94  A    between atoms: _227  and  _229
REMARK   95  A    between atoms: _229  and  _230
REMARK   96  A    between atoms: _229  and  _232
REMARK   97  A    between atoms: _232  and  _233
REMARK   98  A    between atoms: _233  and  _234
REMARK   99  A    between atoms: _234  and  _235
REMARK  100  A    between atoms: _235  and  _236
REMARK  101  A    between atoms: _240  and  _242
REMARK  102  A    between atoms: _242  and  _243
REMARK  103  A    between atoms: _242  and  _245
REMARK  104  A    between atoms: _245  and  _246
REMARK  105  A    between atoms: _249  and  _251
REMARK  106  A    between atoms: _251  and  _252
REMARK  107  A    between atoms: _251  and  _254
REMARK  108  A    between atoms: _254  and  _255
REMARK  109  A    between atoms: _258  and  _260
REMARK  110  A    between atoms: _260  and  _261
REMARK  111  A    between atoms: _260  and  _263
REMARK  112  A    between atoms: _266  and  _268
REMARK  113  A    between atoms: _268  and  _269
REMARK  114  A    between atoms: _272  and  _274
REMARK  115  A    between atoms: _274  and  _275
REMARK  116  A    between atoms: _274  and  _277
REMARK  117  A    between atoms: _280  and  _282
REMARK  118  A    between atoms: _282  and  _283
REMARK  119  A    between atoms: _282  and  _285
REMARK  120  A    between atoms: _285  and  _286
REMARK  121  A    between atoms: _291  and  _293
REMARK  122  A    between atoms: _293  and  _294
REMARK  123  A    between atoms: _293  and  _296
REMARK  124  A    between atoms: _296  and  _297
REMARK  125  A    between atoms: _303  and  _305
REMARK  126  A    between atoms: _305  and  _306
REMARK  127  A    between atoms: _305  and  _308
REMARK  128  A    between atoms: _308  and  _309
REMARK  129  A    between atoms: _312  and  _314
REMARK  130  A    between atoms: _314  and  _315
REMARK  131  A    between atoms: _318  and  _320
REMARK  132  A    between atoms: _320  and  _321
REMARK  133  A    between atoms: _320  and  _323
REMARK  134  A    between atoms: _323  and  _324
REMARK  135  A    between atoms: _326  and  _328
REMARK  136  A    between atoms: _328  and  _329
REMARK  137  A    between atoms: _328  and  _331
REMARK                            x       y       z     vdW  Elec       q    Type
REMARK                         _______ _______ _______ _____ _____    ______ ____
ROOT
ATOM      1  O   HOH     1      42.926   1.821  11.887  0.00  0.00    +0.000 OA
ENDROOT
TORSDOF 0
REMARK  Name = ../refined-set-2016/3d6q/3d6q_pocket.pdb
REMARK  137 active torsions:
REMARK  status: ('A' for Active; 'I' for Inactive)
REMARK    1  A    between atoms: _1  and  _3
REMARK    2  A    between atoms: _3  and  _4
REMARK    3  A    between atoms: _3  and  _6
REMARK    4  A    between atoms: _6  and  _7
REMARK    5  A    between atoms: _7  and  _8
REMARK    6  A    between atoms: _8  and  _9
REMARK    7  A    between atoms: _9  and  _10
REMARK    8  A    between atoms: _14  and  _16
REMARK    9  A    between atoms: _16  and  _17
REMARK   10  A    between atoms: _16  and  _19
REMARK   11  A    between atoms: _19  and  _20
REMARK   12  A    between atoms: _26  and  _28
REMARK   13  A    between atoms: _28  and  _29
REMARK   14  A    between atoms: _28  and  _31
REMARK   15  A    between atoms: _31  and  _32
REMARK   16  A    between atoms: _32  and  _33
REMARK   17  A    between atoms: _38  and  _40
REMARK   18  A    between atoms: _40  and  _41
REMARK   19  A    between atoms: _40  and  _43
REMARK   20  A    between atoms: _43  and  _44
REMARK   21  A    between atoms: _49  and  _51
REMARK   22  A    between atoms: _51  and  _52
REMARK   23  A    between atoms: _51  and  _54
REMARK   24  A    between atoms: _54  and  _55
REMARK   25  A    between atoms: _55  and  _56
REMARK   26  A    between atoms: _58  and  _60
REMARK   27  A    between atoms: _60  and  _61
REMARK   28  A    between atoms: _60  and  _63
REMARK   29  A    between atoms: _63  and  _64
REMARK   30  A    between atoms: _67  and  _69
REMARK   31  A    between atoms: _69  and  _70
REMARK   32  A    between atoms: _69  and  _72
REMARK   33  A    between atoms: _72  and  _73
REMARK   34  A    between atoms: _73  and  _74
REMARK   35  A    between atoms: _74  and  _75
REMARK   36  A    between atoms: _84  and  _86
REMARK   37  A    between atoms: _86  and  _87
REMARK   38  A    between atoms: _86  and  _89
REMARK   39  A    between atoms: _89  and  _90
REMARK   40  A    between atoms: _90  and  _91
REMARK   41  A    between atoms: _91  and  _92
REMARK   42  A    between atoms: _92  and  _93
REMARK   43  A    between atoms: _98  and  _99
REMARK   44  A    between atoms: _104  and  _106
REMARK   45  A    between atoms: _106  and  _107
REMARK   46  A    between atoms: _106  and  _109
REMARK   47  A    between atoms: _112  and  _114
REMARK   48  A    between atoms: _114  and  _115
REMARK   49  A    between atoms: _114  and  _117
REMARK   50  A    between atoms: _117  and  _118
REMARK   51  A    between atoms: _123  and  _125
REMARK   52  A    between atoms: _125  and  _126
REMARK   53  A    between atoms: _125  and  _128
REMARK   54  A    between atoms: _128  and  _129
REMARK   55  A    between atoms: _132  and  _134
REMARK   56  A    between atoms: _134  and  _135
REMARK   57  A    between atoms: _134  and  _137
REMARK   58  A    between atoms: _137  and  _138
REMARK   59  A    between atoms: _144  and  _146
REMARK   60  A    between atoms: _146  and  _147
REMARK   61  A    between atoms: _146  and  _149
REMARK   62  A    between atoms: _152  and  _154
REMARK   63  A    between atoms: _154  and  _155
REMARK   64  A    between atoms: _154  and  _157
REMARK   65  A    between atoms: _157  and  _158
REMARK   66  A    between atoms: _158  and  _159
REMARK   67  A    between atoms: _159  and  _160
REMARK   68  A    between atoms: _160  and  _161
REMARK   69  A    between atoms: _165  and  _167
REMARK   70  A    between atoms: _167  and  _168
REMARK   71  A    between atoms: _167  and  _170
REMARK   72  A    between atoms: _170  and  _171
REMARK   73  A    between atoms: _176  and  _178
REMARK   74  A    between atoms: _178  and  _179
REMARK   75  A    between atoms: _178  and  _181
REMARK   76  A    between atoms: _181  and  _182
REMARK   77  A    between atoms: _185  and  _187
REMARK   78  A    between atoms: _187  and  _188
REMARK   79  A    between atoms: _187  and  _190
REMARK   80  A    between atoms: _190  and  _191
REMARK   81  A    between atoms: _194  and  _196
REMARK   82  A    between atoms: _196  and  _197
REMARK   83  A    between atoms: _196  and  _199
REMARK   84  A    between atoms: _199  and  _200
REMARK   85  A    between atoms: _203  and  _205
REMARK   86  A    between atoms: _205  and  _206
REMARK   87  A    between atoms: _205  and  _208
REMARK   88  A    between atoms: _210  and  _212
REMARK   89  A    between atoms: _212  and  _213
REMARK   90  A    between atoms: _212  and  _215
REMARK   91  A    between atoms: _215  and  _216
REMARK   92  A    between atoms: _216  and  _217
REMARK   93  A    between atoms: _217  and  _218
REMARK   94  A    between atoms: _227  and  _229
REMARK   95  A    between atoms: _229  and  _230
REMARK   96  A    between atoms: _229  and  _232
REMARK   97  A    between atoms: _232  and  _233
REMARK   98  A    between atoms: _233  and  _234
REMARK   99  A    between atoms: _234  and  _235
REMARK  100  A    between atoms: _235  and  _236
REMARK  101  A    between atoms: _240  and  _242
REMARK  102  A    between atoms: _242  and  _243
REMARK  103  A    between atoms: _242  and  _245
REMARK  104  A    between atoms: _245  and  _246
REMARK  105  A    between atoms: _249  and  _251
REMARK  106  A    between atoms: _251  and  _252
REMARK  107  A    between atoms: _251  and  _254
REMARK  108  A    between atoms: _254  and  _255
REMARK  109  A    between atoms: _258  and  _260
REMARK  110  A    between atoms: _260  and  _261
REMARK  111  A    between atoms: _260  and  _263
REMARK  112  A    between atoms: _266  and  _268
REMARK  113  A    between atoms: _268  and  _269
REMARK  114  A    between atoms: _272  and  _274
REMARK  115  A    between atoms: _274  and  _275
REMARK  116  A    between atoms: _274  and  _277
REMARK  117  A    between atoms: _280  and  _282
REMARK  118  A    between atoms: _282  and  _283
REMARK  119  A    between atoms: _282  and  _285
REMARK  120  A    between atoms: _285  and  _286
REMARK  121  A    between atoms: _291  and  _293
REMARK  122  A    between atoms: _293  and  _294
REMARK  123  A    between atoms: _293  and  _296
REMARK  124  A    between atoms: _296  and  _297
REMARK  125  A    between atoms: _303  and  _305
REMARK  126  A    between atoms: _305  and  _306
REMARK  127  A    between atoms: _305  and  _308
REMARK  128  A    between atoms: _308  and  _309
REMARK  129  A    between atoms: _312  and  _314
REMARK  130  A    between atoms: _314  and  _315
REMARK  131  A    between atoms: _318  and  _320
REMARK  132  A    between atoms: _320  and  _321
REMARK  133  A    between atoms: _320  and  _323
REMARK  134  A    between atoms: _323  and  _324
REMARK  135  A    between atoms: _326  and  _328
REMARK  136  A    between atoms: _328  and  _329
REMARK  137  A    between atoms: _328  and  _331
REMARK                            x       y       z     vdW  Elec       q    Type
REMARK                         _______ _______ _______ _____ _____    ______ ____
ROOT
ATOM      1  O   HOH     1      44.991  -0.062  11.592  0.00  0.00    +0.000 OA
ENDROOT
TORSDOF 0
REMARK  Name = ../refined-set-2016/3d6q/3d6q_pocket.pdb
REMARK  137 active torsions:
REMARK  status: ('A' for Active; 'I' for Inactive)
REMARK    1  A    between atoms: _1  and  _3
REMARK    2  A    between atoms: _3  and  _4
REMARK    3  A    between atoms: _3  and  _6
REMARK    4  A    between atoms: _6  and  _7
REMARK    5  A    between atoms: _7  and  _8
REMARK    6  A    between atoms: _8  and  _9
REMARK    7  A    between atoms: _9  and  _10
REMARK    8  A    between atoms: _14  and  _16
REMARK    9  A    between atoms: _16  and  _17
REMARK   10  A    between atoms: _16  and  _19
REMARK   11  A    between atoms: _19  and  _20
REMARK   12  A    between atoms: _26  and  _28
REMARK   13  A    between atoms: _28  and  _29
REMARK   14  A    between atoms: _28  and  _31
REMARK   15  A    between atoms: _31  and  _32
REMARK   16  A    between atoms: _32  and  _33
REMARK   17  A    between atoms: _38  and  _40
REMARK   18  A    between atoms: _40  and  _41
REMARK   19  A    between atoms: _40  and  _43
REMARK   20  A    between atoms: _43  and  _44
REMARK   21  A    between atoms: _49  and  _51
REMARK   22  A    between atoms: _51  and  _52
REMARK   23  A    between atoms: _51  and  _54
REMARK   24  A    between atoms: _54  and  _55
REMARK   25  A    between atoms: _55  and  _56
REMARK   26  A    between atoms: _58  and  _60
REMARK   27  A    between atoms: _60  and  _61
REMARK   28  A    between atoms: _60  and  _63
REMARK   29  A    between atoms: _63  and  _64
REMARK   30  A    between atoms: _67  and  _69
REMARK   31  A    between atoms: _69  and  _70
REMARK   32  A    between atoms: _69  and  _72
REMARK   33  A    between atoms: _72  and  _73
REMARK   34  A    between atoms: _73  and  _74
REMARK   35  A    between atoms: _74  and  _75
REMARK   36  A    between atoms: _84  and  _86
REMARK   37  A    between atoms: _86  and  _87
REMARK   38  A    between atoms: _86  and  _89
REMARK   39  A    between atoms: _89  and  _90
REMARK   40  A    between atoms: _90  and  _91
REMARK   41  A    between atoms: _91  and  _92
REMARK   42  A    between atoms: _92  and  _93
REMARK   43  A    between atoms: _98  and  _99
REMARK   44  A    between atoms: _104  and  _106
REMARK   45  A    between atoms: _106  and  _107
REMARK   46  A    between atoms: _106  and  _109
REMARK   47  A    between atoms: _112  and  _114
REMARK   48  A    between atoms: _114  and  _115
REMARK   49  A    between atoms: _114  and  _117
REMARK   50  A    between atoms: _117  and  _118
REMARK   51  A    between atoms: _123  and  _125
REMARK   52  A    between atoms: _125  and  _126
REMARK   53  A    between atoms: _125  and  _128
REMARK   54  A    between atoms: _128  and  _129
REMARK   55  A    between atoms: _132  and  _134
REMARK   56  A    between atoms: _134  and  _135
REMARK   57  A    between atoms: _134  and  _137
REMARK   58  A    between atoms: _137  and  _138
REMARK   59  A    between atoms: _144  and  _146
REMARK   60  A    between atoms: _146  and  _147
REMARK   61  A    between atoms: _146  and  _149
REMARK   62  A    between atoms: _152  and  _154
REMARK   63  A    between atoms: _154  and  _155
REMARK   64  A    between atoms: _154  and  _157
REMARK   65  A    between atoms: _157  and  _158
REMARK   66  A    between atoms: _158  and  _159
REMARK   67  A    between atoms: _159  and  _160
REMARK   68  A    between atoms: _160  and  _161
REMARK   69  A    between atoms: _165  and  _167
REMARK   70  A    between atoms: _167  and  _168
REMARK   71  A    between atoms: _167  and  _170
REMARK   72  A    between atoms: _170  and  _171
REMARK   73  A    between atoms: _176  and  _178
REMARK   74  A    between atoms: _178  and  _179
REMARK   75  A    between atoms: _178  and  _181
REMARK   76  A    between atoms: _181  and  _182
REMARK   77  A    between atoms: _185  and  _187
REMARK   78  A    between atoms: _187  and  _188
REMARK   79  A    between atoms: _187  and  _190
REMARK   80  A    between atoms: _190  and  _191
REMARK   81  A    between atoms: _194  and  _196
REMARK   82  A    between atoms: _196  and  _197
REMARK   83  A    between atoms: _196  and  _199
REMARK   84  A    between atoms: _199  and  _200
REMARK   85  A    between atoms: _203  and  _205
REMARK   86  A    between atoms: _205  and  _206
REMARK   87  A    between atoms: _205  and  _208
REMARK   88  A    between atoms: _210  and  _212
REMARK   89  A    between atoms: _212  and  _213
REMARK   90  A    between atoms: _212  and  _215
REMARK   91  A    between atoms: _215  and  _216
REMARK   92  A    between atoms: _216  and  _217
REMARK   93  A    between atoms: _217  and  _218
REMARK   94  A    between atoms: _227  and  _229
REMARK   95  A    between atoms: _229  and  _230
REMARK   96  A    between atoms: _229  and  _232
REMARK   97  A    between atoms: _232  and  _233
REMARK   98  A    between atoms: _233  and  _234
REMARK   99  A    between atoms: _234  and  _235
REMARK  100  A    between atoms: _235  and  _236
REMARK  101  A    between atoms: _240  and  _242
REMARK  102  A    between atoms: _242  and  _243
REMARK  103  A    between atoms: _242  and  _245
REMARK  104  A    between atoms: _245  and  _246
REMARK  105  A    between atoms: _249  and  _251
REMARK  106  A    between atoms: _251  and  _252
REMARK  107  A    between atoms: _251  and  _254
REMARK  108  A    between atoms: _254  and  _255
REMARK  109  A    between atoms: _258  and  _260
REMARK  110  A    between atoms: _260  and  _261
REMARK  111  A    between atoms: _260  and  _263
REMARK  112  A    between atoms: _266  and  _268
REMARK  113  A    between atoms: _268  and  _269
REMARK  114  A    between atoms: _272  and  _274
REMARK  115  A    between atoms: _274  and  _275
REMARK  116  A    between atoms: _274  and  _277
REMARK  117  A    between atoms: _280  and  _282
REMARK  118  A    between atoms: _282  and  _283
REMARK  119  A    between atoms: _282  and  _285
REMARK  120  A    between atoms: _285  and  _286
REMARK  121  A    between atoms: _291  and  _293
REMARK  122  A    between atoms: _293  and  _294
REMARK  123  A    between atoms: _293  and  _296
REMARK  124  A    between atoms: _296  and  _297
REMARK  125  A    between atoms: _303  and  _305
REMARK  126  A    between atoms: _305  and  _306
REMARK  127  A    between atoms: _305  and  _308
REMARK  128  A    between atoms: _308  and  _309
REMARK  129  A    between atoms: _312  and  _314
REMARK  130  A    between atoms: _314  and  _315
REMARK  131  A    between atoms: _318  and  _320
REMARK  132  A    between atoms: _320  and  _321
REMARK  133  A    between atoms: _320  and  _323
REMARK  134  A    between atoms: _323  and  _324
REMARK  135  A    between atoms: _326  and  _328
REMARK  136  A    between atoms: _328  and  _329
REMARK  137  A    between atoms: _328  and  _331
REMARK                            x       y       z     vdW  Elec       q    Type
REMARK                         _______ _______ _______ _____ _____    ______ ____
ROOT
ATOM      1  O   HOH     1      39.024  -4.838  15.932  0.00  0.00    +0.000 OA
ENDROOT
TORSDOF 0
REMARK  Name = ../refined-set-2016/3d6q/3d6q_pocket.pdb
REMARK  137 active torsions:
REMARK  status: ('A' for Active; 'I' for Inactive)
REMARK    1  A    between atoms: _1  and  _3
REMARK    2  A    between atoms: _3  and  _4
REMARK    3  A    between atoms: _3  and  _6
REMARK    4  A    between atoms: _6  and  _7
REMARK    5  A    between atoms: _7  and  _8
REMARK    6  A    between atoms: _8  and  _9
REMARK    7  A    between atoms: _9  and  _10
REMARK    8  A    between atoms: _14  and  _16
REMARK    9  A    between atoms: _16  and  _17
REMARK   10  A    between atoms: _16  and  _19
REMARK   11  A    between atoms: _19  and  _20
REMARK   12  A    between atoms: _26  and  _28
REMARK   13  A    between atoms: _28  and  _29
REMARK   14  A    between atoms: _28  and  _31
REMARK   15  A    between atoms: _31  and  _32
REMARK   16  A    between atoms: _32  and  _33
REMARK   17  A    between atoms: _38  and  _40
REMARK   18  A    between atoms: _40  and  _41
REMARK   19  A    between atoms: _40  and  _43
REMARK   20  A    between atoms: _43  and  _44
REMARK   21  A    between atoms: _49  and  _51
REMARK   22  A    between atoms: _51  and  _52
REMARK   23  A    between atoms: _51  and  _54
REMARK   24  A    between atoms: _54  and  _55
REMARK   25  A    between atoms: _55  and  _56
REMARK   26  A    between atoms: _58  and  _60
REMARK   27  A    between atoms: _60  and  _61
REMARK   28  A    between atoms: _60  and  _63
REMARK   29  A    between atoms: _63  and  _64
REMARK   30  A    between atoms: _67  and  _69
REMARK   31  A    between atoms: _69  and  _70
REMARK   32  A    between atoms: _69  and  _72
REMARK   33  A    between atoms: _72  and  _73
REMARK   34  A    between atoms: _73  and  _74
REMARK   35  A    between atoms: _74  and  _75
REMARK   36  A    between atoms: _84  and  _86
REMARK   37  A    between atoms: _86  and  _87
REMARK   38  A    between atoms: _86  and  _89
REMARK   39  A    between atoms: _89  and  _90
REMARK   40  A    between atoms: _90  and  _91
REMARK   41  A    between atoms: _91  and  _92
REMARK   42  A    between atoms: _92  and  _93
REMARK   43  A    between atoms: _98  and  _99
REMARK   44  A    between atoms: _104  and  _106
REMARK   45  A    between atoms: _106  and  _107
REMARK   46  A    between atoms: _106  and  _109
REMARK   47  A    between atoms: _112  and  _114
REMARK   48  A    between atoms: _114  and  _115
REMARK   49  A    between atoms: _114  and  _117
REMARK   50  A    between atoms: _117  and  _118
REMARK   51  A    between atoms: _123  and  _125
REMARK   52  A    between atoms: _125  and  _126
REMARK   53  A    between atoms: _125  and  _128
REMARK   54  A    between atoms: _128  and  _129
REMARK   55  A    between atoms: _132  and  _134
REMARK   56  A    between atoms: _134  and  _135
REMARK   57  A    between atoms: _134  and  _137
REMARK   58  A    between atoms: _137  and  _138
REMARK   59  A    between atoms: _144  and  _146
REMARK   60  A    between atoms: _146  and  _147
REMARK   61  A    between atoms: _146  and  _149
REMARK   62  A    between atoms: _152  and  _154
REMARK   63  A    between atoms: _154  and  _155
REMARK   64  A    between atoms: _154  and  _157
REMARK   65  A    between atoms: _157  and  _158
REMARK   66  A    between atoms: _158  and  _159
REMARK   67  A    between atoms: _159  and  _160
REMARK   68  A    between atoms: _160  and  _161
REMARK   69  A    between atoms: _165  and  _167
REMARK   70  A    between atoms: _167  and  _168
REMARK   71  A    between atoms: _167  and  _170
REMARK   72  A    between atoms: _170  and  _171
REMARK   73  A    between atoms: _176  and  _178
REMARK   74  A    between atoms: _178  and  _179
REMARK   75  A    between atoms: _178  and  _181
REMARK   76  A    between atoms: _181  and  _182
REMARK   77  A    between atoms: _185  and  _187
REMARK   78  A    between atoms: _187  and  _188
REMARK   79  A    between atoms: _187  and  _190
REMARK   80  A    between atoms: _190  and  _191
REMARK   81  A    between atoms: _194  and  _196
REMARK   82  A    between atoms: _196  and  _197
REMARK   83  A    between atoms: _196  and  _199
REMARK   84  A    between atoms: _199  and  _200
REMARK   85  A    between atoms: _203  and  _205
REMARK   86  A    between atoms: _205  and  _206
REMARK   87  A    between atoms: _205  and  _208
REMARK   88  A    between atoms: _210  and  _212
REMARK   89  A    between atoms: _212  and  _213
REMARK   90  A    between atoms: _212  and  _215
REMARK   91  A    between atoms: _215  and  _216
REMARK   92  A    between atoms: _216  and  _217
REMARK   93  A    between atoms: _217  and  _218
REMARK   94  A    between atoms: _227  and  _229
REMARK   95  A    between atoms: _229  and  _230
REMARK   96  A    between atoms: _229  and  _232
REMARK   97  A    between atoms: _232  and  _233
REMARK   98  A    between atoms: _233  and  _234
REMARK   99  A    between atoms: _234  and  _235
REMARK  100  A    between atoms: _235  and  _236
REMARK  101  A    between atoms: _240  and  _242
REMARK  102  A    between atoms: _242  and  _243
REMARK  103  A    between atoms: _242  and  _245
REMARK  104  A    between atoms: _245  and  _246
REMARK  105  A    between atoms: _249  and  _251
REMARK  106  A    between atoms: _251  and  _252
REMARK  107  A    between atoms: _251  and  _254
REMARK  108  A    between atoms: _254  and  _255
REMARK  109  A    between atoms: _258  and  _260
REMARK  110  A    between atoms: _260  and  _261
REMARK  111  A    between atoms: _260  and  _263
REMARK  112  A    between atoms: _266  and  _268
REMARK  113  A    between atoms: _268  and  _269
REMARK  114  A    between atoms: _272  and  _274
REMARK  115  A    between atoms: _274  and  _275
REMARK  116  A    between atoms: _274  and  _277
REMARK  117  A    between atoms: _280  and  _282
REMARK  118  A    between atoms: _282  and  _283
REMARK  119  A    between atoms: _282  and  _285
REMARK  120  A    between atoms: _285  and  _286
REMARK  121  A    between atoms: _291  and  _293
REMARK  122  A    between atoms: _293  and  _294
REMARK  123  A    between atoms: _293  and  _296
REMARK  124  A    between atoms: _296  and  _297
REMARK  125  A    between atoms: _303  and  _305
REMARK  126  A    between atoms: _305  and  _306
REMARK  127  A    between atoms: _305  and  _308
REMARK  128  A    between atoms: _308  and  _309
REMARK  129  A    between atoms: _312  and  _314
REMARK  130  A    between atoms: _314  and  _315
REMARK  131  A    between atoms: _318  and  _320
REMARK  132  A    between atoms: _320  and  _321
REMARK  133  A    between atoms: _320  and  _323
REMARK  134  A    between atoms: _323  and  _324
REMARK  135  A    between atoms: _326  and  _328
REMARK  136  A    between atoms: _328  and  _329
REMARK  137  A    between atoms: _328  and  _331
REMARK                            x       y       z     vdW  Elec       q    Type
REMARK                         _______ _______ _______ _____ _____    ______ ____
ROOT
ATOM      1  O   HOH     1      41.893  -3.678  10.982  0.00  0.00    +0.000 OA
ENDROOT
TORSDOF 0
REMARK  Name = ../refined-set-2016/3d6q/3d6q_pocket.pdb
REMARK  137 active torsions:
REMARK  status: ('A' for Active; 'I' for Inactive)
REMARK    1  A    between atoms: _1  and  _3
REMARK    2  A    between atoms: _3  and  _4
REMARK    3  A    between atoms: _3  and  _6
REMARK    4  A    between atoms: _6  and  _7
REMARK    5  A    between atoms: _7  and  _8
REMARK    6  A    between atoms: _8  and  _9
REMARK    7  A    between atoms: _9  and  _10
REMARK    8  A    between atoms: _14  and  _16
REMARK    9  A    between atoms: _16  and  _17
REMARK   10  A    between atoms: _16  and  _19
REMARK   11  A    between atoms: _19  and  _20
REMARK   12  A    between atoms: _26  and  _28
REMARK   13  A    between atoms: _28  and  _29
REMARK   14  A    between atoms: _28  and  _31
REMARK   15  A    between atoms: _31  and  _32
REMARK   16  A    between atoms: _32  and  _33
REMARK   17  A    between atoms: _38  and  _40
REMARK   18  A    between atoms: _40  and  _41
REMARK   19  A    between atoms: _40  and  _43
REMARK   20  A    between atoms: _43  and  _44
REMARK   21  A    between atoms: _49  and  _51
REMARK   22  A    between atoms: _51  and  _52
REMARK   23  A    between atoms: _51  and  _54
REMARK   24  A    between atoms: _54  and  _55
REMARK   25  A    between atoms: _55  and  _56
REMARK   26  A    between atoms: _58  and  _60
REMARK   27  A    between atoms: _60  and  _61
REMARK   28  A    between atoms: _60  and  _63
REMARK   29  A    between atoms: _63  and  _64
REMARK   30  A    between atoms: _67  and  _69
REMARK   31  A    between atoms: _69  and  _70
REMARK   32  A    between atoms: _69  and  _72
REMARK   33  A    between atoms: _72  and  _73
REMARK   34  A    between atoms: _73  and  _74
REMARK   35  A    between atoms: _74  and  _75
REMARK   36  A    between atoms: _84  and  _86
REMARK   37  A    between atoms: _86  and  _87
REMARK   38  A    between atoms: _86  and  _89
REMARK   39  A    between atoms: _89  and  _90
REMARK   40  A    between atoms: _90  and  _91
REMARK   41  A    between atoms: _91  and  _92
REMARK   42  A    between atoms: _92  and  _93
REMARK   43  A    between atoms: _98  and  _99
REMARK   44  A    between atoms: _104  and  _106
REMARK   45  A    between atoms: _106  and  _107
REMARK   46  A    between atoms: _106  and  _109
REMARK   47  A    between atoms: _112  and  _114
REMARK   48  A    between atoms: _114  and  _115
REMARK   49  A    between atoms: _114  and  _117
REMARK   50  A    between atoms: _117  and  _118
REMARK   51  A    between atoms: _123  and  _125
REMARK   52  A    between atoms: _125  and  _126
REMARK   53  A    between atoms: _125  and  _128
REMARK   54  A    between atoms: _128  and  _129
REMARK   55  A    between atoms: _132  and  _134
REMARK   56  A    between atoms: _134  and  _135
REMARK   57  A    between atoms: _134  and  _137
REMARK   58  A    between atoms: _137  and  _138
REMARK   59  A    between atoms: _144  and  _146
REMARK   60  A    between atoms: _146  and  _147
REMARK   61  A    between atoms: _146  and  _149
REMARK   62  A    between atoms: _152  and  _154
REMARK   63  A    between atoms: _154  and  _155
REMARK   64  A    between atoms: _154  and  _157
REMARK   65  A    between atoms: _157  and  _158
REMARK   66  A    between atoms: _158  and  _159
REMARK   67  A    between atoms: _159  and  _160
REMARK   68  A    between atoms: _160  and  _161
REMARK   69  A    between atoms: _165  and  _167
REMARK   70  A    between atoms: _167  and  _168
REMARK   71  A    between atoms: _167  and  _170
REMARK   72  A    between atoms: _170  and  _171
REMARK   73  A    between atoms: _176  and  _178
REMARK   74  A    between atoms: _178  and  _179
REMARK   75  A    between atoms: _178  and  _181
REMARK   76  A    between atoms: _181  and  _182
REMARK   77  A    between atoms: _185  and  _187
REMARK   78  A    between atoms: _187  and  _188
REMARK   79  A    between atoms: _187  and  _190
REMARK   80  A    between atoms: _190  and  _191
REMARK   81  A    between atoms: _194  and  _196
REMARK   82  A    between atoms: _196  and  _197
REMARK   83  A    between atoms: _196  and  _199
REMARK   84  A    between atoms: _199  and  _200
REMARK   85  A    between atoms: _203  and  _205
REMARK   86  A    between atoms: _205  and  _206
REMARK   87  A    between atoms: _205  and  _208
REMARK   88  A    between atoms: _210  and  _212
REMARK   89  A    between atoms: _212  and  _213
REMARK   90  A    between atoms: _212  and  _215
REMARK   91  A    between atoms: _215  and  _216
REMARK   92  A    between atoms: _216  and  _217
REMARK   93  A    between atoms: _217  and  _218
REMARK   94  A    between atoms: _227  and  _229
REMARK   95  A    between atoms: _229  and  _230
REMARK   96  A    between atoms: _229  and  _232
REMARK   97  A    between atoms: _232  and  _233
REMARK   98  A    between atoms: _233  and  _234
REMARK   99  A    between atoms: _234  and  _235
REMARK  100  A    between atoms: _235  and  _236
REMARK  101  A    between atoms: _240  and  _242
REMARK  102  A    between atoms: _242  and  _243
REMARK  103  A    between atoms: _242  and  _245
REMARK  104  A    between atoms: _245  and  _246
REMARK  105  A    between atoms: _249  and  _251
REMARK  106  A    between atoms: _251  and  _252
REMARK  107  A    between atoms: _251  and  _254
REMARK  108  A    between atoms: _254  and  _255
REMARK  109  A    between atoms: _258  and  _260
REMARK  110  A    between atoms: _260  and  _261
REMARK  111  A    between atoms: _260  and  _263
REMARK  112  A    between atoms: _266  and  _268
REMARK  113  A    between atoms: _268  and  _269
REMARK  114  A    between atoms: _272  and  _274
REMARK  115  A    between atoms: _274  and  _275
REMARK  116  A    between atoms: _274  and  _277
REMARK  117  A    between atoms: _280  and  _282
REMARK  118  A    between atoms: _282  and  _283
REMARK  119  A    between atoms: _282  and  _285
REMARK  120  A    between atoms: _285  and  _286
REMARK  121  A    between atoms: _291  and  _293
REMARK  122  A    between atoms: _293  and  _294
REMARK  123  A    between atoms: _293  and  _296
REMARK  124  A    between atoms: _296  and  _297
REMARK  125  A    between atoms: _303  and  _305
REMARK  126  A    between atoms: _305  and  _306
REMARK  127  A    between atoms: _305  and  _308
REMARK  128  A    between atoms: _308  and  _309
REMARK  129  A    between atoms: _312  and  _314
REMARK  130  A    between atoms: _314  and  _315
REMARK  131  A    between atoms: _318  and  _320
REMARK  132  A    between atoms: _320  and  _321
REMARK  133  A    between atoms: _320  and  _323
REMARK  134  A    between atoms: _323  and  _324
REMARK  135  A    between atoms: _326  and  _328
REMARK  136  A    between atoms: _328  and  _329
REMARK  137  A    between atoms: _328  and  _331
REMARK                            x       y       z     vdW  Elec       q    Type
REMARK                         _______ _______ _______ _____ _____    ______ ____
ROOT
ATOM      1  O   HOH     1      46.870  -2.954  14.432  0.00  0.00    +0.000 OA
ENDROOT
TORSDOF 0
REMARK  Name = ../refined-set-2016/3d6q/3d6q_pocket.pdb
REMARK  137 active torsions:
REMARK  status: ('A' for Active; 'I' for Inactive)
REMARK    1  A    between atoms: _1  and  _3
REMARK    2  A    between atoms: _3  and  _4
REMARK    3  A    between atoms: _3  and  _6
REMARK    4  A    between atoms: _6  and  _7
REMARK    5  A    between atoms: _7  and  _8
REMARK    6  A    between atoms: _8  and  _9
REMARK    7  A    between atoms: _9  and  _10
REMARK    8  A    between atoms: _14  and  _16
REMARK    9  A    between atoms: _16  and  _17
REMARK   10  A    between atoms: _16  and  _19
REMARK   11  A    between atoms: _19  and  _20
REMARK   12  A    between atoms: _26  and  _28
REMARK   13  A    between atoms: _28  and  _29
REMARK   14  A    between atoms: _28  and  _31
REMARK   15  A    between atoms: _31  and  _32
REMARK   16  A    between atoms: _32  and  _33
REMARK   17  A    between atoms: _38  and  _40
REMARK   18  A    between atoms: _40  and  _41
REMARK   19  A    between atoms: _40  and  _43
REMARK   20  A    between atoms: _43  and  _44
REMARK   21  A    between atoms: _49  and  _51
REMARK   22  A    between atoms: _51  and  _52
REMARK   23  A    between atoms: _51  and  _54
REMARK   24  A    between atoms: _54  and  _55
REMARK   25  A    between atoms: _55  and  _56
REMARK   26  A    between atoms: _58  and  _60
REMARK   27  A    between atoms: _60  and  _61
REMARK   28  A    between atoms: _60  and  _63
REMARK   29  A    between atoms: _63  and  _64
REMARK   30  A    between atoms: _67  and  _69
REMARK   31  A    between atoms: _69  and  _70
REMARK   32  A    between atoms: _69  and  _72
REMARK   33  A    between atoms: _72  and  _73
REMARK   34  A    between atoms: _73  and  _74
REMARK   35  A    between atoms: _74  and  _75
REMARK   36  A    between atoms: _84  and  _86
REMARK   37  A    between atoms: _86  and  _87
REMARK   38  A    between atoms: _86  and  _89
REMARK   39  A    between atoms: _89  and  _90
REMARK   40  A    between atoms: _90  and  _91
REMARK   41  A    between atoms: _91  and  _92
REMARK   42  A    between atoms: _92  and  _93
REMARK   43  A    between atoms: _98  and  _99
REMARK   44  A    between atoms: _104  and  _106
REMARK   45  A    between atoms: _106  and  _107
REMARK   46  A    between atoms: _106  and  _109
REMARK   47  A    between atoms: _112  and  _114
REMARK   48  A    between atoms: _114  and  _115
REMARK   49  A    between atoms: _114  and  _117
REMARK   50  A    between atoms: _117  and  _118
REMARK   51  A    between atoms: _123  and  _125
REMARK   52  A    between atoms: _125  and  _126
REMARK   53  A    between atoms: _125  and  _128
REMARK   54  A    between atoms: _128  and  _129
REMARK   55  A    between atoms: _132  and  _134
REMARK   56  A    between atoms: _134  and  _135
REMARK   57  A    between atoms: _134  and  _137
REMARK   58  A    between atoms: _137  and  _138
REMARK   59  A    between atoms: _144  and  _146
REMARK   60  A    between atoms: _146  and  _147
REMARK   61  A    between atoms: _146  and  _149
REMARK   62  A    between atoms: _152  and  _154
REMARK   63  A    between atoms: _154  and  _155
REMARK   64  A    between atoms: _154  and  _157
REMARK   65  A    between atoms: _157  and  _158
REMARK   66  A    between atoms: _158  and  _159
REMARK   67  A    between atoms: _159  and  _160
REMARK   68  A    between atoms: _160  and  _161
REMARK   69  A    between atoms: _165  and  _167
REMARK   70  A    between atoms: _167  and  _168
REMARK   71  A    between atoms: _167  and  _170
REMARK   72  A    between atoms: _170  and  _171
REMARK   73  A    between atoms: _176  and  _178
REMARK   74  A    between atoms: _178  and  _179
REMARK   75  A    between atoms: _178  and  _181
REMARK   76  A    between atoms: _181  and  _182
REMARK   77  A    between atoms: _185  and  _187
REMARK   78  A    between atoms: _187  and  _188
REMARK   79  A    between atoms: _187  and  _190
REMARK   80  A    between atoms: _190  and  _191
REMARK   81  A    between atoms: _194  and  _196
REMARK   82  A    between atoms: _196  and  _197
REMARK   83  A    between atoms: _196  and  _199
REMARK   84  A    between atoms: _199  and  _200
REMARK   85  A    between atoms: _203  and  _205
REMARK   86  A    between atoms: _205  and  _206
REMARK   87  A    between atoms: _205  and  _208
REMARK   88  A    between atoms: _210  and  _212
REMARK   89  A    between atoms: _212  and  _213
REMARK   90  A    between atoms: _212  and  _215
REMARK   91  A    between atoms: _215  and  _216
REMARK   92  A    between atoms: _216  and  _217
REMARK   93  A    between atoms: _217  and  _218
REMARK   94  A    between atoms: _227  and  _229
REMARK   95  A    between atoms: _229  and  _230
REMARK   96  A    between atoms: _229  and  _232
REMARK   97  A    between atoms: _232  and  _233
REMARK   98  A    between atoms: _233  and  _234
REMARK   99  A    between atoms: _234  and  _235
REMARK  100  A    between atoms: _235  and  _236
REMARK  101  A    between atoms: _240  and  _242
REMARK  102  A    between atoms: _242  and  _243
REMARK  103  A    between atoms: _242  and  _245
REMARK  104  A    between atoms: _245  and  _246
REMARK  105  A    between atoms: _249  and  _251
REMARK  106  A    between atoms: _251  and  _252
REMARK  107  A    between atoms: _251  and  _254
REMARK  108  A    between atoms: _254  and  _255
REMARK  109  A    between atoms: _258  and  _260
REMARK  110  A    between atoms: _260  and  _261
REMARK  111  A    between atoms: _260  and  _263
REMARK  112  A    between atoms: _266  and  _268
REMARK  113  A    between atoms: _268  and  _269
REMARK  114  A    between atoms: _272  and  _274
REMARK  115  A    between atoms: _274  and  _275
REMARK  116  A    between atoms: _274  and  _277
REMARK  117  A    between atoms: _280  and  _282
REMARK  118  A    between atoms: _282  and  _283
REMARK  119  A    between atoms: _282  and  _285
REMARK  120  A    between atoms: _285  and  _286
REMARK  121  A    between atoms: _291  and  _293
REMARK  122  A    between atoms: _293  and  _294
REMARK  123  A    between atoms: _293  and  _296
REMARK  124  A    between atoms: _296  and  _297
REMARK  125  A    between atoms: _303  and  _305
REMARK  126  A    between atoms: _305  and  _306
REMARK  127  A    between atoms: _305  and  _308
REMARK  128  A    between atoms: _308  and  _309
REMARK  129  A    between atoms: _312  and  _314
REMARK  130  A    between atoms: _314  and  _315
REMARK  131  A    between atoms: _318  and  _320
REMARK  132  A    between atoms: _320  and  _321
REMARK  133  A    between atoms: _320  and  _323
REMARK  134  A    between atoms: _323  and  _324
REMARK  135  A    between atoms: _326  and  _328
REMARK  136  A    between atoms: _328  and  _329
REMARK  137  A    between atoms: _328  and  _331
REMARK                            x       y       z     vdW  Elec       q    Type
REMARK                         _______ _______ _______ _____ _____    ______ ____
ROOT
ATOM      1  O   HOH     1      46.186  -4.652   9.818  0.00  0.00    +0.000 OA
ENDROOT
TORSDOF 0
REMARK  Name = ../refined-set-2016/3d6q/3d6q_pocket.pdb
REMARK  137 active torsions:
REMARK  status: ('A' for Active; 'I' for Inactive)
REMARK    1  A    between atoms: _1  and  _3
REMARK    2  A    between atoms: _3  and  _4
REMARK    3  A    between atoms: _3  and  _6
REMARK    4  A    between atoms: _6  and  _7
REMARK    5  A    between atoms: _7  and  _8
REMARK    6  A    between atoms: _8  and  _9
REMARK    7  A    between atoms: _9  and  _10
REMARK    8  A    between atoms: _14  and  _16
REMARK    9  A    between atoms: _16  and  _17
REMARK   10  A    between atoms: _16  and  _19
REMARK   11  A    between atoms: _19  and  _20
REMARK   12  A    between atoms: _26  and  _28
REMARK   13  A    between atoms: _28  and  _29
REMARK   14  A    between atoms: _28  and  _31
REMARK   15  A    between atoms: _31  and  _32
REMARK   16  A    between atoms: _32  and  _33
REMARK   17  A    between atoms: _38  and  _40
REMARK   18  A    between atoms: _40  and  _41
REMARK   19  A    between atoms: _40  and  _43
REMARK   20  A    between atoms: _43  and  _44
REMARK   21  A    between atoms: _49  and  _51
REMARK   22  A    between atoms: _51  and  _52
REMARK   23  A    between atoms: _51  and  _54
REMARK   24  A    between atoms: _54  and  _55
REMARK   25  A    between atoms: _55  and  _56
REMARK   26  A    between atoms: _58  and  _60
REMARK   27  A    between atoms: _60  and  _61
REMARK   28  A    between atoms: _60  and  _63
REMARK   29  A    between atoms: _63  and  _64
REMARK   30  A    between atoms: _67  and  _69
REMARK   31  A    between atoms: _69  and  _70
REMARK   32  A    between atoms: _69  and  _72
REMARK   33  A    between atoms: _72  and  _73
REMARK   34  A    between atoms: _73  and  _74
REMARK   35  A    between atoms: _74  and  _75
REMARK   36  A    between atoms: _84  and  _86
REMARK   37  A    between atoms: _86  and  _87
REMARK   38  A    between atoms: _86  and  _89
REMARK   39  A    between atoms: _89  and  _90
REMARK   40  A    between atoms: _90  and  _91
REMARK   41  A    between atoms: _91  and  _92
REMARK   42  A    between atoms: _92  and  _93
REMARK   43  A    between atoms: _98  and  _99
REMARK   44  A    between atoms: _104  and  _106
REMARK   45  A    between atoms: _106  and  _107
REMARK   46  A    between atoms: _106  and  _109
REMARK   47  A    between atoms: _112  and  _114
REMARK   48  A    between atoms: _114  and  _115
REMARK   49  A    between atoms: _114  and  _117
REMARK   50  A    between atoms: _117  and  _118
REMARK   51  A    between atoms: _123  and  _125
REMARK   52  A    between atoms: _125  and  _126
REMARK   53  A    between atoms: _125  and  _128
REMARK   54  A    between atoms: _128  and  _129
REMARK   55  A    between atoms: _132  and  _134
REMARK   56  A    between atoms: _134  and  _135
REMARK   57  A    between atoms: _134  and  _137
REMARK   58  A    between atoms: _137  and  _138
REMARK   59  A    between atoms: _144  and  _146
REMARK   60  A    between atoms: _146  and  _147
REMARK   61  A    between atoms: _146  and  _149
REMARK   62  A    between atoms: _152  and  _154
REMARK   63  A    between atoms: _154  and  _155
REMARK   64  A    between atoms: _154  and  _157
REMARK   65  A    between atoms: _157  and  _158
REMARK   66  A    between atoms: _158  and  _159
REMARK   67  A    between atoms: _159  and  _160
REMARK   68  A    between atoms: _160  and  _161
REMARK   69  A    between atoms: _165  and  _167
REMARK   70  A    between atoms: _167  and  _168
REMARK   71  A    between atoms: _167  and  _170
REMARK   72  A    between atoms: _170  and  _171
REMARK   73  A    between atoms: _176  and  _178
REMARK   74  A    between atoms: _178  and  _179
REMARK   75  A    between atoms: _178  and  _181
REMARK   76  A    between atoms: _181  and  _182
REMARK   77  A    between atoms: _185  and  _187
REMARK   78  A    between atoms: _187  and  _188
REMARK   79  A    between atoms: _187  and  _190
REMARK   80  A    between atoms: _190  and  _191
REMARK   81  A    between atoms: _194  and  _196
REMARK   82  A    between atoms: _196  and  _197
REMARK   83  A    between atoms: _196  and  _199
REMARK   84  A    between atoms: _199  and  _200
REMARK   85  A    between atoms: _203  and  _205
REMARK   86  A    between atoms: _205  and  _206
REMARK   87  A    between atoms: _205  and  _208
REMARK   88  A    between atoms: _210  and  _212
REMARK   89  A    between atoms: _212  and  _213
REMARK   90  A    between atoms: _212  and  _215
REMARK   91  A    between atoms: _215  and  _216
REMARK   92  A    between atoms: _216  and  _217
REMARK   93  A    between atoms: _217  and  _218
REMARK   94  A    between atoms: _227  and  _229
REMARK   95  A    between atoms: _229  and  _230
REMARK   96  A    between atoms: _229  and  _232
REMARK   97  A    between atoms: _232  and  _233
REMARK   98  A    between atoms: _233  and  _234
REMARK   99  A    between atoms: _234  and  _235
REMARK  100  A    between atoms: _235  and  _236
REMARK  101  A    between atoms: _240  and  _242
REMARK  102  A    between atoms: _242  and  _243
REMARK  103  A    between atoms: _242  and  _245
REMARK  104  A    between atoms: _245  and  _246
REMARK  105  A    between atoms: _249  and  _251
REMARK  106  A    between atoms: _251  and  _252
REMARK  107  A    between atoms: _251  and  _254
REMARK  108  A    between atoms: _254  and  _255
REMARK  109  A    between atoms: _258  and  _260
REMARK  110  A    between atoms: _260  and  _261
REMARK  111  A    between atoms: _260  and  _263
REMARK  112  A    between atoms: _266  and  _268
REMARK  113  A    between atoms: _268  and  _269
REMARK  114  A    between atoms: _272  and  _274
REMARK  115  A    between atoms: _274  and  _275
REMARK  116  A    between atoms: _274  and  _277
REMARK  117  A    between atoms: _280  and  _282
REMARK  118  A    between atoms: _282  and  _283
REMARK  119  A    between atoms: _282  and  _285
REMARK  120  A    between atoms: _285  and  _286
REMARK  121  A    between atoms: _291  and  _293
REMARK  122  A    between atoms: _293  and  _294
REMARK  123  A    between atoms: _293  and  _296
REMARK  124  A    between atoms: _296  and  _297
REMARK  125  A    between atoms: _303  and  _305
REMARK  126  A    between atoms: _305  and  _306
REMARK  127  A    between atoms: _305  and  _308
REMARK  128  A    between atoms: _308  and  _309
REMARK  129  A    between atoms: _312  and  _314
REMARK  130  A    between atoms: _314  and  _315
REMARK  131  A    between atoms: _318  and  _320
REMARK  132  A    between atoms: _320  and  _321
REMARK  133  A    between atoms: _320  and  _323
REMARK  134  A    between atoms: _323  and  _324
REMARK  135  A    between atoms: _326  and  _328
REMARK  136  A    between atoms: _328  and  _329
REMARK  137  A    between atoms: _328  and  _331
REMARK                            x       y       z     vdW  Elec       q    Type
REMARK                         _______ _______ _______ _____ _____    ______ ____
ROOT
ATOM      1  O   HOH     1      39.056  -6.067  13.584  0.00  0.00    +0.000 OA
ENDROOT
TORSDOF 0
REMARK  Name = ../refined-set-2016/3d6q/3d6q_pocket.pdb
REMARK  137 active torsions:
REMARK  status: ('A' for Active; 'I' for Inactive)
REMARK    1  A    between atoms: _1  and  _3
REMARK    2  A    between atoms: _3  and  _4
REMARK    3  A    between atoms: _3  and  _6
REMARK    4  A    between atoms: _6  and  _7
REMARK    5  A    between atoms: _7  and  _8
REMARK    6  A    between atoms: _8  and  _9
REMARK    7  A    between atoms: _9  and  _10
REMARK    8  A    between atoms: _14  and  _16
REMARK    9  A    between atoms: _16  and  _17
REMARK   10  A    between atoms: _16  and  _19
REMARK   11  A    between atoms: _19  and  _20
REMARK   12  A    between atoms: _26  and  _28
REMARK   13  A    between atoms: _28  and  _29
REMARK   14  A    between atoms: _28  and  _31
REMARK   15  A    between atoms: _31  and  _32
REMARK   16  A    between atoms: _32  and  _33
REMARK   17  A    between atoms: _38  and  _40
REMARK   18  A    between atoms: _40  and  _41
REMARK   19  A    between atoms: _40  and  _43
REMARK   20  A    between atoms: _43  and  _44
REMARK   21  A    between atoms: _49  and  _51
REMARK   22  A    between atoms: _51  and  _52
REMARK   23  A    between atoms: _51  and  _54
REMARK   24  A    between atoms: _54  and  _55
REMARK   25  A    between atoms: _55  and  _56
REMARK   26  A    between atoms: _58  and  _60
REMARK   27  A    between atoms: _60  and  _61
REMARK   28  A    between atoms: _60  and  _63
REMARK   29  A    between atoms: _63  and  _64
REMARK   30  A    between atoms: _67  and  _69
REMARK   31  A    between atoms: _69  and  _70
REMARK   32  A    between atoms: _69  and  _72
REMARK   33  A    between atoms: _72  and  _73
REMARK   34  A    between atoms: _73  and  _74
REMARK   35  A    between atoms: _74  and  _75
REMARK   36  A    between atoms: _84  and  _86
REMARK   37  A    between atoms: _86  and  _87
REMARK   38  A    between atoms: _86  and  _89
REMARK   39  A    between atoms: _89  and  _90
REMARK   40  A    between atoms: _90  and  _91
REMARK   41  A    between atoms: _91  and  _92
REMARK   42  A    between atoms: _92  and  _93
REMARK   43  A    between atoms: _98  and  _99
REMARK   44  A    between atoms: _104  and  _106
REMARK   45  A    between atoms: _106  and  _107
REMARK   46  A    between atoms: _106  and  _109
REMARK   47  A    between atoms: _112  and  _114
REMARK   48  A    between atoms: _114  and  _115
REMARK   49  A    between atoms: _114  and  _117
REMARK   50  A    between atoms: _117  and  _118
REMARK   51  A    between atoms: _123  and  _125
REMARK   52  A    between atoms: _125  and  _126
REMARK   53  A    between atoms: _125  and  _128
REMARK   54  A    between atoms: _128  and  _129
REMARK   55  A    between atoms: _132  and  _134
REMARK   56  A    between atoms: _134  and  _135
REMARK   57  A    between atoms: _134  and  _137
REMARK   58  A    between atoms: _137  and  _138
REMARK   59  A    between atoms: _144  and  _146
REMARK   60  A    between atoms: _146  and  _147
REMARK   61  A    between atoms: _146  and  _149
REMARK   62  A    between atoms: _152  and  _154
REMARK   63  A    between atoms: _154  and  _155
REMARK   64  A    between atoms: _154  and  _157
REMARK   65  A    between atoms: _157  and  _158
REMARK   66  A    between atoms: _158  and  _159
REMARK   67  A    between atoms: _159  and  _160
REMARK   68  A    between atoms: _160  and  _161
REMARK   69  A    between atoms: _165  and  _167
REMARK   70  A    between atoms: _167  and  _168
REMARK   71  A    between atoms: _167  and  _170
REMARK   72  A    between atoms: _170  and  _171
REMARK   73  A    between atoms: _176  and  _178
REMARK   74  A    between atoms: _178  and  _179
REMARK   75  A    between atoms: _178  and  _181
REMARK   76  A    between atoms: _181  and  _182
REMARK   77  A    between atoms: _185  and  _187
REMARK   78  A    between atoms: _187  and  _188
REMARK   79  A    between atoms: _187  and  _190
REMARK   80  A    between atoms: _190  and  _191
REMARK   81  A    between atoms: _194  and  _196
REMARK   82  A    between atoms: _196  and  _197
REMARK   83  A    between atoms: _196  and  _199
REMARK   84  A    between atoms: _199  and  _200
REMARK   85  A    between atoms: _203  and  _205
REMARK   86  A    between atoms: _205  and  _206
REMARK   87  A    between atoms: _205  and  _208
REMARK   88  A    between atoms: _210  and  _212
REMARK   89  A    between atoms: _212  and  _213
REMARK   90  A    between atoms: _212  and  _215
REMARK   91  A    between atoms: _215  and  _216
REMARK   92  A    between atoms: _216  and  _217
REMARK   93  A    between atoms: _217  and  _218
REMARK   94  A    between atoms: _227  and  _229
REMARK   95  A    between atoms: _229  and  _230
REMARK   96  A    between atoms: _229  and  _232
REMARK   97  A    between atoms: _232  and  _233
REMARK   98  A    between atoms: _233  and  _234
REMARK   99  A    between atoms: _234  and  _235
REMARK  100  A    between atoms: _235  and  _236
REMARK  101  A    between atoms: _240  and  _242
REMARK  102  A    between atoms: _242  and  _243
REMARK  103  A    between atoms: _242  and  _245
REMARK  104  A    between atoms: _245  and  _246
REMARK  105  A    between atoms: _249  and  _251
REMARK  106  A    between atoms: _251  and  _252
REMARK  107  A    between atoms: _251  and  _254
REMARK  108  A    between atoms: _254  and  _255
REMARK  109  A    between atoms: _258  and  _260
REMARK  110  A    between atoms: _260  and  _261
REMARK  111  A    between atoms: _260  and  _263
REMARK  112  A    between atoms: _266  and  _268
REMARK  113  A    between atoms: _268  and  _269
REMARK  114  A    between atoms: _272  and  _274
REMARK  115  A    between atoms: _274  and  _275
REMARK  116  A    between atoms: _274  and  _277
REMARK  117  A    between atoms: _280  and  _282
REMARK  118  A    between atoms: _282  and  _283
REMARK  119  A    between atoms: _282  and  _285
REMARK  120  A    between atoms: _285  and  _286
REMARK  121  A    between atoms: _291  and  _293
REMARK  122  A    between atoms: _293  and  _294
REMARK  123  A    between atoms: _293  and  _296
REMARK  124  A    between atoms: _296  and  _297
REMARK  125  A    between atoms: _303  and  _305
REMARK  126  A    between atoms: _305  and  _306
REMARK  127  A    between atoms: _305  and  _308
REMARK  128  A    between atoms: _308  and  _309
REMARK  129  A    between atoms: _312  and  _314
REMARK  130  A    between atoms: _314  and  _315
REMARK  131  A    between atoms: _318  and  _320
REMARK  132  A    between atoms: _320  and  _321
REMARK  133  A    between atoms: _320  and  _323
REMARK  134  A    between atoms: _323  and  _324
REMARK  135  A    between atoms: _326  and  _328
REMARK  136  A    between atoms: _328  and  _329
REMARK  137  A    between atoms: _328  and  _331
REMARK                            x       y       z     vdW  Elec       q    Type
REMARK                         _______ _______ _______ _____ _____    ______ ____
ROOT
ATOM      1  O   HOH     1      47.890   3.482  11.470  0.00  0.00    +0.000 OA
ENDROOT
TORSDOF 0
