REMARK  Name = ../refined-set-2016/2q54/2q54_pocket.pdb
REMARK  199 active torsions:
REMARK  status: ('A' for Active; 'I' for Inactive)
REMARK    1  A    between atoms: _1  and  _3
REMARK    2  A    between atoms: _3  and  _4
REMARK    3  A    between atoms: _3  and  _6
REMARK    4  A    between atoms: _6  and  _7
REMARK    5  A    between atoms: _7  and  _8
REMARK    6  A    between atoms: _8  and  _9
REMARK    7  A    between atoms: _18  and  _20
REMARK    8  A    between atoms: _20  and  _21
REMARK    9  A    between atoms: _20  and  _23
REMARK   10  A    between atoms: _23  and  _24
REMARK   11  A    between atoms: _27  and  _29
REMARK   12  A    between atoms: _29  and  _30
REMARK   13  A    between atoms: _29  and  _32
REMARK   14  A    between atoms: _32  and  _33
REMARK   15  A    between atoms: _36  and  _38
REMARK   16  A    between atoms: _38  and  _39
REMARK   17  A    between atoms: _38  and  _41
REMARK   18  A    between atoms: _41  and  _42
REMARK   19  A    between atoms: _45  and  _47
REMARK   20  A    between atoms: _47  and  _48
REMARK   21  A    between atoms: _47  and  _50
REMARK   22  A    between atoms: _50  and  _51
REMARK   23  A    between atoms: _54  and  _56
REMARK   24  A    between atoms: _56  and  _57
REMARK   25  A    between atoms: _59  and  _61
REMARK   26  A    between atoms: _61  and  _62
REMARK   27  A    between atoms: _65  and  _67
REMARK   28  A    between atoms: _67  and  _68
REMARK   29  A    between atoms: _67  and  _70
REMARK   30  A    between atoms: _70  and  _71
REMARK   31  A    between atoms: _74  and  _76
REMARK   32  A    between atoms: _76  and  _77
REMARK   33  A    between atoms: _76  and  _79
REMARK   34  A    between atoms: _79  and  _80
REMARK   35  A    between atoms: _83  and  _85
REMARK   36  A    between atoms: _85  and  _86
REMARK   37  A    between atoms: _85  and  _88
REMARK   38  A    between atoms: _88  and  _89
REMARK   39  A    between atoms: _92  and  _94
REMARK   40  A    between atoms: _94  and  _95
REMARK   41  A    between atoms: _94  and  _97
REMARK   42  A    between atoms: _100  and  _102
REMARK   43  A    between atoms: _102  and  _103
REMARK   44  A    between atoms: _102  and  _105
REMARK   45  A    between atoms: _105  and  _106
REMARK   46  A    between atoms: _109  and  _111
REMARK   47  A    between atoms: _111  and  _112
REMARK   48  A    between atoms: _114  and  _116
REMARK   49  A    between atoms: _116  and  _117
REMARK   50  A    between atoms: _119  and  _121
REMARK   51  A    between atoms: _121  and  _122
REMARK   52  A    between atoms: _121  and  _124
REMARK   53  A    between atoms: _124  and  _125
REMARK   54  A    between atoms: _128  and  _130
REMARK   55  A    between atoms: _130  and  _131
REMARK   56  A    between atoms: _133  and  _135
REMARK   57  A    between atoms: _135  and  _136
REMARK   58  A    between atoms: _138  and  _140
REMARK   59  A    between atoms: _140  and  _141
REMARK   60  A    between atoms: _140  and  _143
REMARK   61  A    between atoms: _143  and  _144
REMARK   62  A    between atoms: _150  and  _152
REMARK   63  A    between atoms: _152  and  _153
REMARK   64  A    between atoms: _152  and  _155
REMARK   65  A    between atoms: _155  and  _156
REMARK   66  A    between atoms: _159  and  _161
REMARK   67  A    between atoms: _161  and  _162
REMARK   68  A    between atoms: _161  and  _164
REMARK   69  A    between atoms: _164  and  _165
REMARK   70  A    between atoms: _169  and  _170
REMARK   71  A    between atoms: _175  and  _177
REMARK   72  A    between atoms: _177  and  _178
REMARK   73  A    between atoms: _177  and  _180
REMARK   74  A    between atoms: _180  and  _181
REMARK   75  A    between atoms: _185  and  _186
REMARK   76  A    between atoms: _191  and  _193
REMARK   77  A    between atoms: _193  and  _194
REMARK   78  A    between atoms: _193  and  _196
REMARK   79  A    between atoms: _199  and  _201
REMARK   80  A    between atoms: _201  and  _202
REMARK   81  A    between atoms: _201  and  _204
REMARK   82  A    between atoms: _204  and  _205
REMARK   83  A    between atoms: _210  and  _212
REMARK   84  A    between atoms: _212  and  _213
REMARK   85  A    between atoms: _212  and  _215
REMARK   86  A    between atoms: _215  and  _216
REMARK   87  A    between atoms: _219  and  _221
REMARK   88  A    between atoms: _221  and  _222
REMARK   89  A    between atoms: _221  and  _224
REMARK   90  A    between atoms: _224  and  _225
REMARK   91  A    between atoms: _228  and  _230
REMARK   92  A    between atoms: _230  and  _231
REMARK   93  A    between atoms: _233  and  _235
REMARK   94  A    between atoms: _235  and  _236
REMARK   95  A    between atoms: _235  and  _238
REMARK   96  A    between atoms: _238  and  _239
REMARK   97  A    between atoms: _239  and  _240
REMARK   98  A    between atoms: _240  and  _241
REMARK   99  A    between atoms: _250  and  _252
REMARK  100  A    between atoms: _252  and  _253
REMARK  101  A    between atoms: _252  and  _255
REMARK  102  A    between atoms: _255  and  _256
REMARK  103  A    between atoms: _256  and  _257
REMARK  104  A    between atoms: _257  and  _258
REMARK  105  A    between atoms: _267  and  _269
REMARK  106  A    between atoms: _269  and  _270
REMARK  107  A    between atoms: _269  and  _272
REMARK  108  A    between atoms: _272  and  _273
REMARK  109  A    between atoms: _276  and  _278
REMARK  110  A    between atoms: _278  and  _279
REMARK  111  A    between atoms: _278  and  _281
REMARK  112  A    between atoms: _281  and  _282
REMARK  113  A    between atoms: _285  and  _287
REMARK  114  A    between atoms: _287  and  _288
REMARK  115  A    between atoms: _287  and  _290
REMARK  116  A    between atoms: _290  and  _291
REMARK  117  A    between atoms: _294  and  _296
REMARK  118  A    between atoms: _296  and  _297
REMARK  119  A    between atoms: _296  and  _299
REMARK  120  A    between atoms: _299  and  _300
REMARK  121  A    between atoms: _303  and  _305
REMARK  122  A    between atoms: _305  and  _306
REMARK  123  A    between atoms: _308  and  _310
REMARK  124  A    between atoms: _310  and  _311
REMARK  125  A    between atoms: _314  and  _316
REMARK  126  A    between atoms: _316  and  _317
REMARK  127  A    between atoms: _316  and  _319
REMARK  128  A    between atoms: _319  and  _320
REMARK  129  A    between atoms: _323  and  _325
REMARK  130  A    between atoms: _325  and  _326
REMARK  131  A    between atoms: _325  and  _328
REMARK  132  A    between atoms: _328  and  _329
REMARK  133  A    between atoms: _332  and  _334
REMARK  134  A    between atoms: _334  and  _335
REMARK  135  A    between atoms: _334  and  _337
REMARK  136  A    between atoms: _337  and  _338
REMARK  137  A    between atoms: _341  and  _343
REMARK  138  A    between atoms: _343  and  _344
REMARK  139  A    between atoms: _343  and  _346
REMARK  140  A    between atoms: _349  and  _351
REMARK  141  A    between atoms: _351  and  _352
REMARK  142  A    between atoms: _351  and  _354
REMARK  143  A    between atoms: _354  and  _355
REMARK  144  A    between atoms: _355  and  _356
REMARK  145  A    between atoms: _356  and  _357
REMARK  146  A    between atoms: _357  and  _358
REMARK  147  A    between atoms: _362  and  _364
REMARK  148  A    between atoms: _364  and  _365
REMARK  149  A    between atoms: _364  and  _367
REMARK  150  A    between atoms: _367  and  _368
REMARK  151  A    between atoms: _368  and  _369
REMARK  152  A    between atoms: _371  and  _373
REMARK  153  A    between atoms: _373  and  _374
REMARK  154  A    between atoms: _373  and  _376
REMARK  155  A    between atoms: _376  and  _377
REMARK  156  A    between atoms: _380  and  _382
REMARK  157  A    between atoms: _382  and  _383
REMARK  158  A    between atoms: _385  and  _387
REMARK  159  A    between atoms: _387  and  _388
REMARK  160  A    between atoms: _390  and  _392
REMARK  161  A    between atoms: _392  and  _393
REMARK  162  A    between atoms: _392  and  _395
REMARK  163  A    between atoms: _395  and  _396
REMARK  164  A    between atoms: _399  and  _401
REMARK  165  A    between atoms: _401  and  _402
REMARK  166  A    between atoms: _404  and  _406
REMARK  167  A    between atoms: _406  and  _407
REMARK  168  A    between atoms: _409  and  _411
REMARK  169  A    between atoms: _411  and  _412
REMARK  170  A    between atoms: _411  and  _414
REMARK  171  A    between atoms: _414  and  _415
REMARK  172  A    between atoms: _421  and  _423
REMARK  173  A    between atoms: _423  and  _424
REMARK  174  A    between atoms: _423  and  _426
REMARK  175  A    between atoms: _426  and  _427
REMARK  176  A    between atoms: _431  and  _432
REMARK  177  A    between atoms: _437  and  _439
REMARK  178  A    between atoms: _439  and  _440
REMARK  179  A    between atoms: _439  and  _442
REMARK  180  A    between atoms: _445  and  _447
REMARK  181  A    between atoms: _447  and  _448
REMARK  182  A    between atoms: _447  and  _450
REMARK  183  A    between atoms: _450  and  _451
REMARK  184  A    between atoms: _456  and  _458
REMARK  185  A    between atoms: _458  and  _459
REMARK  186  A    between atoms: _458  and  _461
REMARK  187  A    between atoms: _461  and  _462
REMARK  188  A    between atoms: _465  and  _467
REMARK  189  A    between atoms: _467  and  _468
REMARK  190  A    between atoms: _467  and  _470
REMARK  191  A    between atoms: _470  and  _471
REMARK  192  A    between atoms: _474  and  _476
REMARK  193  A    between atoms: _476  and  _477
REMARK  194  A    between atoms: _479  and  _481
REMARK  195  A    between atoms: _481  and  _482
REMARK  196  A    between atoms: _481  and  _484
REMARK  197  A    between atoms: _484  and  _485
REMARK  198  A    between atoms: _485  and  _486
REMARK  199  A    between atoms: _486  and  _487
REMARK                            x       y       z     vdW  Elec       q    Type
REMARK                         _______ _______ _______ _____ _____    ______ ____
ROOT
ATOM      1  NE  ARG A   1      21.242  -8.105   7.186  0.00  0.00    -0.265 N 
ATOM      2  CZ  ARG A   1      21.071  -8.682   8.374  0.00  0.00    +0.342 C 
ATOM      3  NH2 ARG A   1      21.654  -8.199   9.473  0.00  0.00    -0.292 N 
ATOM      4 HH21 ARG A   1      21.505  -8.668  10.389  0.00  0.00    +0.255 HD
ATOM      5 HH22 ARG A   1      22.257  -7.354   9.413  0.00  0.00    +0.255 HD
ATOM      6  NH1 ARG A   1      20.288  -9.755   8.465  0.00  0.00    -0.292 N 
ATOM      7 HH11 ARG A   1      20.144 -10.217   9.385  0.00  0.00    +0.255 HD
ATOM      8 HH12 ARG A   1      19.820 -10.131   7.616  0.00  0.00    +0.255 HD
ATOM      9  HE  ARG A   1      20.736  -8.522   6.378  0.00  0.00    +0.259 HD
ENDROOT
BRANCH   1  10
ATOM     10  CD  ARG A   1      22.079  -6.937   6.919  0.00  0.00    +0.174 C 
BRANCH  10  11
ATOM     11  CG  ARG A   1      21.476  -6.125   5.809  0.00  0.00    +0.045 C 
BRANCH  11  12
ATOM     12  CB  ARG A   1      22.518  -5.419   5.017  0.00  0.00    +0.029 C 
BRANCH  12  13
ATOM     13  CA  ARG A   1      21.933  -4.483   3.975  0.00  0.00    +0.133 C 
BRANCH  13  14
ATOM     14  N   ARG A   1      21.277  -5.222   2.906  0.00  0.00    -0.239 NA
ATOM     15  H   ARG A   1      21.267  -6.262   2.921  0.00  0.00    +0.142 HD
ENDBRANCH  13  14
BRANCH  13  16
ATOM     16  C   ARG A   1      23.057  -3.625   3.395  0.00  0.00    +0.224 C 
ATOM     17  O   ARG A   1      23.853  -4.111   2.572  0.00  0.00    -0.287 OA
ENDBRANCH  13  16
ENDBRANCH  12  13
ENDBRANCH  11  12
ENDBRANCH  10  11
ENDBRANCH   1  10
TORSDOF 6
REMARK  Name = ../refined-set-2016/2q54/2q54_pocket.pdb
REMARK  199 active torsions:
REMARK  status: ('A' for Active; 'I' for Inactive)
REMARK    1  A    between atoms: _1  and  _3
REMARK    2  A    between atoms: _3  and  _4
REMARK    3  A    between atoms: _3  and  _6
REMARK    4  A    between atoms: _6  and  _7
REMARK    5  A    between atoms: _7  and  _8
REMARK    6  A    between atoms: _8  and  _9
REMARK    7  A    between atoms: _18  and  _20
REMARK    8  A    between atoms: _20  and  _21
REMARK    9  A    between atoms: _20  and  _23
REMARK   10  A    between atoms: _23  and  _24
REMARK   11  A    between atoms: _27  and  _29
REMARK   12  A    between atoms: _29  and  _30
REMARK   13  A    between atoms: _29  and  _32
REMARK   14  A    between atoms: _32  and  _33
REMARK   15  A    between atoms: _36  and  _38
REMARK   16  A    between atoms: _38  and  _39
REMARK   17  A    between atoms: _38  and  _41
REMARK   18  A    between atoms: _41  and  _42
REMARK   19  A    between atoms: _45  and  _47
REMARK   20  A    between atoms: _47  and  _48
REMARK   21  A    between atoms: _47  and  _50
REMARK   22  A    between atoms: _50  and  _51
REMARK   23  A    between atoms: _54  and  _56
REMARK   24  A    between atoms: _56  and  _57
REMARK   25  A    between atoms: _59  and  _61
REMARK   26  A    between atoms: _61  and  _62
REMARK   27  A    between atoms: _65  and  _67
REMARK   28  A    between atoms: _67  and  _68
REMARK   29  A    between atoms: _67  and  _70
REMARK   30  A    between atoms: _70  and  _71
REMARK   31  A    between atoms: _74  and  _76
REMARK   32  A    between atoms: _76  and  _77
REMARK   33  A    between atoms: _76  and  _79
REMARK   34  A    between atoms: _79  and  _80
REMARK   35  A    between atoms: _83  and  _85
REMARK   36  A    between atoms: _85  and  _86
REMARK   37  A    between atoms: _85  and  _88
REMARK   38  A    between atoms: _88  and  _89
REMARK   39  A    between atoms: _92  and  _94
REMARK   40  A    between atoms: _94  and  _95
REMARK   41  A    between atoms: _94  and  _97
REMARK   42  A    between atoms: _100  and  _102
REMARK   43  A    between atoms: _102  and  _103
REMARK   44  A    between atoms: _102  and  _105
REMARK   45  A    between atoms: _105  and  _106
REMARK   46  A    between atoms: _109  and  _111
REMARK   47  A    between atoms: _111  and  _112
REMARK   48  A    between atoms: _114  and  _116
REMARK   49  A    between atoms: _116  and  _117
REMARK   50  A    between atoms: _119  and  _121
REMARK   51  A    between atoms: _121  and  _122
REMARK   52  A    between atoms: _121  and  _124
REMARK   53  A    between atoms: _124  and  _125
REMARK   54  A    between atoms: _128  and  _130
REMARK   55  A    between atoms: _130  and  _131
REMARK   56  A    between atoms: _133  and  _135
REMARK   57  A    between atoms: _135  and  _136
REMARK   58  A    between atoms: _138  and  _140
REMARK   59  A    between atoms: _140  and  _141
REMARK   60  A    between atoms: _140  and  _143
REMARK   61  A    between atoms: _143  and  _144
REMARK   62  A    between atoms: _150  and  _152
REMARK   63  A    between atoms: _152  and  _153
REMARK   64  A    between atoms: _152  and  _155
REMARK   65  A    between atoms: _155  and  _156
REMARK   66  A    between atoms: _159  and  _161
REMARK   67  A    between atoms: _161  and  _162
REMARK   68  A    between atoms: _161  and  _164
REMARK   69  A    between atoms: _164  and  _165
REMARK   70  A    between atoms: _169  and  _170
REMARK   71  A    between atoms: _175  and  _177
REMARK   72  A    between atoms: _177  and  _178
REMARK   73  A    between atoms: _177  and  _180
REMARK   74  A    between atoms: _180  and  _181
REMARK   75  A    between atoms: _185  and  _186
REMARK   76  A    between atoms: _191  and  _193
REMARK   77  A    between atoms: _193  and  _194
REMARK   78  A    between atoms: _193  and  _196
REMARK   79  A    between atoms: _199  and  _201
REMARK   80  A    between atoms: _201  and  _202
REMARK   81  A    between atoms: _201  and  _204
REMARK   82  A    between atoms: _204  and  _205
REMARK   83  A    between atoms: _210  and  _212
REMARK   84  A    between atoms: _212  and  _213
REMARK   85  A    between atoms: _212  and  _215
REMARK   86  A    between atoms: _215  and  _216
REMARK   87  A    between atoms: _219  and  _221
REMARK   88  A    between atoms: _221  and  _222
REMARK   89  A    between atoms: _221  and  _224
REMARK   90  A    between atoms: _224  and  _225
REMARK   91  A    between atoms: _228  and  _230
REMARK   92  A    between atoms: _230  and  _231
REMARK   93  A    between atoms: _233  and  _235
REMARK   94  A    between atoms: _235  and  _236
REMARK   95  A    between atoms: _235  and  _238
REMARK   96  A    between atoms: _238  and  _239
REMARK   97  A    between atoms: _239  and  _240
REMARK   98  A    between atoms: _240  and  _241
REMARK   99  A    between atoms: _250  and  _252
REMARK  100  A    between atoms: _252  and  _253
REMARK  101  A    between atoms: _252  and  _255
REMARK  102  A    between atoms: _255  and  _256
REMARK  103  A    between atoms: _256  and  _257
REMARK  104  A    between atoms: _257  and  _258
REMARK  105  A    between atoms: _267  and  _269
REMARK  106  A    between atoms: _269  and  _270
REMARK  107  A    between atoms: _269  and  _272
REMARK  108  A    between atoms: _272  and  _273
REMARK  109  A    between atoms: _276  and  _278
REMARK  110  A    between atoms: _278  and  _279
REMARK  111  A    between atoms: _278  and  _281
REMARK  112  A    between atoms: _281  and  _282
REMARK  113  A    between atoms: _285  and  _287
REMARK  114  A    between atoms: _287  and  _288
REMARK  115  A    between atoms: _287  and  _290
REMARK  116  A    between atoms: _290  and  _291
REMARK  117  A    between atoms: _294  and  _296
REMARK  118  A    between atoms: _296  and  _297
REMARK  119  A    between atoms: _296  and  _299
REMARK  120  A    between atoms: _299  and  _300
REMARK  121  A    between atoms: _303  and  _305
REMARK  122  A    between atoms: _305  and  _306
REMARK  123  A    between atoms: _308  and  _310
REMARK  124  A    between atoms: _310  and  _311
REMARK  125  A    between atoms: _314  and  _316
REMARK  126  A    between atoms: _316  and  _317
REMARK  127  A    between atoms: _316  and  _319
REMARK  128  A    between atoms: _319  and  _320
REMARK  129  A    between atoms: _323  and  _325
REMARK  130  A    between atoms: _325  and  _326
REMARK  131  A    between atoms: _325  and  _328
REMARK  132  A    between atoms: _328  and  _329
REMARK  133  A    between atoms: _332  and  _334
REMARK  134  A    between atoms: _334  and  _335
REMARK  135  A    between atoms: _334  and  _337
REMARK  136  A    between atoms: _337  and  _338
REMARK  137  A    between atoms: _341  and  _343
REMARK  138  A    between atoms: _343  and  _344
REMARK  139  A    between atoms: _343  and  _346
REMARK  140  A    between atoms: _349  and  _351
REMARK  141  A    between atoms: _351  and  _352
REMARK  142  A    between atoms: _351  and  _354
REMARK  143  A    between atoms: _354  and  _355
REMARK  144  A    between atoms: _355  and  _356
REMARK  145  A    between atoms: _356  and  _357
REMARK  146  A    between atoms: _357  and  _358
REMARK  147  A    between atoms: _362  and  _364
REMARK  148  A    between atoms: _364  and  _365
REMARK  149  A    between atoms: _364  and  _367
REMARK  150  A    between atoms: _367  and  _368
REMARK  151  A    between atoms: _368  and  _369
REMARK  152  A    between atoms: _371  and  _373
REMARK  153  A    between atoms: _373  and  _374
REMARK  154  A    between atoms: _373  and  _376
REMARK  155  A    between atoms: _376  and  _377
REMARK  156  A    between atoms: _380  and  _382
REMARK  157  A    between atoms: _382  and  _383
REMARK  158  A    between atoms: _385  and  _387
REMARK  159  A    between atoms: _387  and  _388
REMARK  160  A    between atoms: _390  and  _392
REMARK  161  A    between atoms: _392  and  _393
REMARK  162  A    between atoms: _392  and  _395
REMARK  163  A    between atoms: _395  and  _396
REMARK  164  A    between atoms: _399  and  _401
REMARK  165  A    between atoms: _401  and  _402
REMARK  166  A    between atoms: _404  and  _406
REMARK  167  A    between atoms: _406  and  _407
REMARK  168  A    between atoms: _409  and  _411
REMARK  169  A    between atoms: _411  and  _412
REMARK  170  A    between atoms: _411  and  _414
REMARK  171  A    between atoms: _414  and  _415
REMARK  172  A    between atoms: _421  and  _423
REMARK  173  A    between atoms: _423  and  _424
REMARK  174  A    between atoms: _423  and  _426
REMARK  175  A    between atoms: _426  and  _427
REMARK  176  A    between atoms: _431  and  _432
REMARK  177  A    between atoms: _437  and  _439
REMARK  178  A    between atoms: _439  and  _440
REMARK  179  A    between atoms: _439  and  _442
REMARK  180  A    between atoms: _445  and  _447
REMARK  181  A    between atoms: _447  and  _448
REMARK  182  A    between atoms: _447  and  _450
REMARK  183  A    between atoms: _450  and  _451
REMARK  184  A    between atoms: _456  and  _458
REMARK  185  A    between atoms: _458  and  _459
REMARK  186  A    between atoms: _458  and  _461
REMARK  187  A    between atoms: _461  and  _462
REMARK  188  A    between atoms: _465  and  _467
REMARK  189  A    between atoms: _467  and  _468
REMARK  190  A    between atoms: _467  and  _470
REMARK  191  A    between atoms: _470  and  _471
REMARK  192  A    between atoms: _474  and  _476
REMARK  193  A    between atoms: _476  and  _477
REMARK  194  A    between atoms: _479  and  _481
REMARK  195  A    between atoms: _481  and  _482
REMARK  196  A    between atoms: _481  and  _484
REMARK  197  A    between atoms: _484  and  _485
REMARK  198  A    between atoms: _485  and  _486
REMARK  199  A    between atoms: _486  and  _487
REMARK                            x       y       z     vdW  Elec       q    Type
REMARK                         _______ _______ _______ _____ _____    ______ ____
ROOT
ATOM      1  C   GLY A   5      20.703   3.754  14.731  0.00  0.00    +0.243 C 
ATOM      2  O   GLY A   5      20.284   3.378  15.828  0.00  0.00    -0.273 OA
ATOM      3  N   ALA A   6      21.989   3.998  14.502  0.00  0.00    -0.297 N 
ATOM      4  H   ALA A   6      22.286   4.277  13.545  0.00  0.00    +0.150 HD
ENDROOT
BRANCH   3   5
ATOM      5  CA  ALA A   6      23.000   3.886  15.555  0.00  0.00    +0.149 C 
ATOM      6  CB  ALA A   6      24.047   2.882  15.142  0.00  0.00    +0.031 C 
BRANCH   5   7
ATOM      7  C   ALA A   6      23.658   5.237  15.859  0.00  0.00    +0.241 C 
ATOM      8  N   ASP A   7      23.636   5.637  17.135  0.00  0.00    -0.297 N 
ATOM      9  H   ASP A   7      23.135   5.056  17.838  0.00  0.00    +0.150 HD
ATOM     10  O   ALA A   6      24.205   5.880  14.959  0.00  0.00    -0.273 OA
BRANCH   8  11
ATOM     11  CA  ASP A   7      24.296   6.869  17.572  0.00  0.00    +0.160 C 
BRANCH  11  12
ATOM     12  C   ASP A   7      25.813   6.714  17.417  0.00  0.00    +0.241 C 
ATOM     13  N   ASP A   8      26.285   5.513  17.729  0.00  0.00    -0.297 N 
ATOM     14  H   ASP A   8      25.608   4.738  17.875  0.00  0.00    +0.150 HD
ATOM     15  O   ASP A   7      26.527   7.653  17.046  0.00  0.00    -0.273 OA
BRANCH  13  16
ATOM     16  CA  ASP A   8      27.701   5.230  17.876  0.00  0.00    +0.160 C 
BRANCH  16  17
ATOM     17  C   ASP A   8      28.155   4.162  16.902  0.00  0.00    +0.241 C 
ATOM     18  N   THR A   9      29.466   4.139  16.686  0.00  0.00    -0.295 N 
ATOM     19  H   THR A   9      30.045   4.888  17.117  0.00  0.00    +0.150 HD
ATOM     20  O   ASP A   8      27.346   3.395  16.371  0.00  0.00    -0.273 OA
BRANCH  18  21
ATOM     21  CA  THR A   9      30.139   3.135  15.888  0.00  0.00    +0.176 C 
BRANCH  21  22
ATOM     22  C   THR A   9      30.627   2.026  16.830  0.00  0.00    +0.243 C 
ATOM     23  O   THR A   9      31.313   2.279  17.839  0.00  0.00    -0.273 OA
ATOM     24  N   VAL A  10      30.235   0.801  16.506  0.00  0.00    -0.298 N 
ATOM     25  H   VAL A  10      29.707   0.662  15.621  0.00  0.00    +0.150 HD
BRANCH  24  26
ATOM     26  CA  VAL A  10      30.515  -0.353  17.340  0.00  0.00    +0.137 C 
BRANCH  26  27
ATOM     27  CB  VAL A  10      29.255  -0.855  18.094  0.00  0.00    +0.026 C 
ATOM     28  CG2 VAL A  10      29.683  -1.867  19.158  0.00  0.00    +0.002 C 
ATOM     29  CG1 VAL A  10      28.502   0.295  18.732  0.00  0.00    +0.002 C 
ENDBRANCH  26  27
BRANCH  26  30
ATOM     30  C   VAL A  10      31.065  -1.496  16.488  0.00  0.00    +0.227 C 
ATOM     31  O   VAL A  10      30.391  -1.987  15.581  0.00  0.00    -0.286 OA
ENDBRANCH  26  30
ENDBRANCH  24  26
ENDBRANCH  21  22
BRANCH  21  32
ATOM     32  CB  THR A   9      31.293   3.777  15.091  0.00  0.00    +0.137 C 
ATOM     33  CG2 THR A   9      32.164   2.740  14.395  0.00  0.00    +0.034 C 
BRANCH  32  34
ATOM     34  OG1 THR A   9      30.736   4.672  14.116  0.00  0.00    -0.382 OA
ATOM     35  HG1 THR A   9      30.212   5.375  14.576  0.00  0.00    +0.210 HD
ENDBRANCH  32  34
ENDBRANCH  21  32
ENDBRANCH  18  21
ENDBRANCH  16  17
BRANCH  16  36
ATOM     36  CB  ASP A   8      27.975   4.736  19.295  0.00  0.00    +0.143 C 
BRANCH  36  37
ATOM     37  CG  ASP A   8      27.461   5.684  20.346  0.00  0.00    +0.367 C 
ATOM     38  OD2 ASP A   8      26.801   5.215  21.290  0.00  0.00    -0.246 OA
ATOM     39  OD1 ASP A   8      27.708   6.894  20.225  0.00  0.00    -0.246 OA
ENDBRANCH  36  37
ENDBRANCH  16  36
ENDBRANCH  13  16
ENDBRANCH  11  12
BRANCH  11  40
ATOM     40  CB  ASP A   7      24.028   7.150  19.056  0.00  0.00    +0.143 C 
BRANCH  40  41
ATOM     41  CG  ASP A   7      22.575   7.496  19.367  0.00  0.00    +0.367 C 
ATOM     42  OD2 ASP A   7      22.275   7.592  20.570  0.00  0.00    -0.246 OA
ATOM     43  OD1 ASP A   7      21.738   7.664  18.452  0.00  0.00    -0.246 OA
ENDBRANCH  40  41
ENDBRANCH  11  40
ENDBRANCH   8  11
ENDBRANCH   5   7
ENDBRANCH   3   5
BRANCH   1  44
ATOM     44  CA  GLY A   5      19.738   3.977  13.578  0.00  0.00    +0.176 C 
BRANCH  44  47
ATOM     45  C   THR A   4      20.757   5.457  11.880  0.00  0.00    +0.243 C 
ATOM     46  O   THR A   4      20.520   6.482  12.516  0.00  0.00    -0.273 OA
ATOM     47  N   GLY A   5      20.369   4.243  12.275  0.00  0.00    -0.295 N 
ATOM     48  H   GLY A   5      20.520   3.443  11.628  0.00  0.00    +0.150 HD
BRANCH  45  49
ATOM     49  CA  THR A   4      21.505   5.540  10.545  0.00  0.00    +0.176 C 
BRANCH  49  52
ATOM     50  C   ASP A   3      23.080   3.692  10.811  0.00  0.00    +0.241 C 
ATOM     51  O   ASP A   3      23.574   4.172  11.834  0.00  0.00    -0.273 OA
ATOM     52  N   THR A   4      22.075   4.257  10.147  0.00  0.00    -0.295 N 
ATOM     53  H   THR A   4      21.683   3.768   9.317  0.00  0.00    +0.150 HD
BRANCH  50  54
ATOM     54  CA  ASP A   3      23.575   2.360  10.253  0.00  0.00    +0.160 C 
BRANCH  54  56
ATOM     55  C   LEU A   2      24.717   1.964   8.126  0.00  0.00    +0.241 C 
ATOM     56  N   ASP A   3      24.709   2.518   9.342  0.00  0.00    -0.297 N 
ATOM     57  H   ASP A   3      25.531   3.076   9.649  0.00  0.00    +0.150 HD
ATOM     58  O   LEU A   2      23.700   1.560   7.572  0.00  0.00    -0.273 OA
BRANCH  55  59
ATOM     59  CA  LEU A   2      26.078   1.817   7.448  0.00  0.00    +0.149 C 
BRANCH  59  62
ATOM     60  C   LEU A   1      26.809  -0.292   8.435  0.00  0.00    +0.238 C 
ATOM     61  O   LEU A   1      27.060   0.245   9.513  0.00  0.00    -0.274 OA
ATOM     62  N   LEU A   2      26.394   0.389   7.368  0.00  0.00    -0.297 N 
ATOM     63  H   LEU A   2      26.292  -0.104   6.458  0.00  0.00    +0.150 HD
BRANCH  60  64
ATOM     64  CA  LEU A   1      26.962  -1.799   8.279  0.00  0.00    +0.145 C 
BRANCH  64  65
ATOM     65  N   LEU A   1      28.301  -2.211   8.635  0.00  0.00    -0.238 NA
ATOM     66  H   LEU A   1      28.503  -2.417   9.634  0.00  0.00    +0.142 HD
ENDBRANCH  64  65
BRANCH  64  67
ATOM     67  CB  LEU A   1      25.985  -2.517   9.211  0.00  0.00    +0.026 C 
BRANCH  67  68
ATOM     68  CG  LEU A   1      24.493  -2.383   8.967  0.00  0.00    +0.002 C 
ATOM     69  CD2 LEU A   1      23.738  -3.019  10.148  0.00  0.00    +0.000 C 
ATOM     70  CD1 LEU A   1      24.111  -3.028   7.641  0.00  0.00    +0.000 C 
ENDBRANCH  67  68
ENDBRANCH  64  67
ENDBRANCH  60  64
ENDBRANCH  59  62
BRANCH  59  71
ATOM     71  CB  LEU A   2      26.076   2.452   6.056  0.00  0.00    +0.029 C 
BRANCH  71  72
ATOM     72  CG  LEU A   2      27.392   2.396   5.285  0.00  0.00    +0.002 C 
ATOM     73  CD2 LEU A   2      28.532   3.049   6.075  0.00  0.00    +0.000 C 
ATOM     74  CD1 LEU A   2      27.222   3.068   3.920  0.00  0.00    +0.000 C 
ENDBRANCH  71  72
ENDBRANCH  59  71
ENDBRANCH  55  59
ENDBRANCH  54  56
BRANCH  54  75
ATOM     75  CB  ASP A   3      23.989   1.430  11.402  0.00  0.00    +0.143 C 
BRANCH  75  76
ATOM     76  CG  ASP A   3      22.843   1.071  12.323  0.00  0.00    +0.367 C 
ATOM     77  OD2 ASP A   3      23.117   0.343  13.292  0.00  0.00    -0.246 OA
ATOM     78  OD1 ASP A   3      21.679   1.490  12.084  0.00  0.00    -0.246 OA
ENDBRANCH  75  76
ENDBRANCH  54  75
ENDBRANCH  50  54
ENDBRANCH  49  52
BRANCH  49  79
ATOM     79  CB  THR A   4      20.549   6.094   9.458  0.00  0.00    +0.137 C 
ATOM     80  CG2 THR A   4      21.311   6.316   8.147  0.00  0.00    +0.034 C 
BRANCH  79  81
ATOM     81  OG1 THR A   4      19.447   5.198   9.235  0.00  0.00    -0.382 OA
ATOM     82  HG1 THR A   4      18.939   5.085  10.077  0.00  0.00    +0.210 HD
ENDBRANCH  79  81
ENDBRANCH  49  79
ENDBRANCH  45  49
ENDBRANCH  44  47
ENDBRANCH   1  44
TORSDOF 35
REMARK  Name = ../refined-set-2016/2q54/2q54_pocket.pdb
REMARK  199 active torsions:
REMARK  status: ('A' for Active; 'I' for Inactive)
REMARK    1  A    between atoms: _1  and  _3
REMARK    2  A    between atoms: _3  and  _4
REMARK    3  A    between atoms: _3  and  _6
REMARK    4  A    between atoms: _6  and  _7
REMARK    5  A    between atoms: _7  and  _8
REMARK    6  A    between atoms: _8  and  _9
REMARK    7  A    between atoms: _18  and  _20
REMARK    8  A    between atoms: _20  and  _21
REMARK    9  A    between atoms: _20  and  _23
REMARK   10  A    between atoms: _23  and  _24
REMARK   11  A    between atoms: _27  and  _29
REMARK   12  A    between atoms: _29  and  _30
REMARK   13  A    between atoms: _29  and  _32
REMARK   14  A    between atoms: _32  and  _33
REMARK   15  A    between atoms: _36  and  _38
REMARK   16  A    between atoms: _38  and  _39
REMARK   17  A    between atoms: _38  and  _41
REMARK   18  A    between atoms: _41  and  _42
REMARK   19  A    between atoms: _45  and  _47
REMARK   20  A    between atoms: _47  and  _48
REMARK   21  A    between atoms: _47  and  _50
REMARK   22  A    between atoms: _50  and  _51
REMARK   23  A    between atoms: _54  and  _56
REMARK   24  A    between atoms: _56  and  _57
REMARK   25  A    between atoms: _59  and  _61
REMARK   26  A    between atoms: _61  and  _62
REMARK   27  A    between atoms: _65  and  _67
REMARK   28  A    between atoms: _67  and  _68
REMARK   29  A    between atoms: _67  and  _70
REMARK   30  A    between atoms: _70  and  _71
REMARK   31  A    between atoms: _74  and  _76
REMARK   32  A    between atoms: _76  and  _77
REMARK   33  A    between atoms: _76  and  _79
REMARK   34  A    between atoms: _79  and  _80
REMARK   35  A    between atoms: _83  and  _85
REMARK   36  A    between atoms: _85  and  _86
REMARK   37  A    between atoms: _85  and  _88
REMARK   38  A    between atoms: _88  and  _89
REMARK   39  A    between atoms: _92  and  _94
REMARK   40  A    between atoms: _94  and  _95
REMARK   41  A    between atoms: _94  and  _97
REMARK   42  A    between atoms: _100  and  _102
REMARK   43  A    between atoms: _102  and  _103
REMARK   44  A    between atoms: _102  and  _105
REMARK   45  A    between atoms: _105  and  _106
REMARK   46  A    between atoms: _109  and  _111
REMARK   47  A    between atoms: _111  and  _112
REMARK   48  A    between atoms: _114  and  _116
REMARK   49  A    between atoms: _116  and  _117
REMARK   50  A    between atoms: _119  and  _121
REMARK   51  A    between atoms: _121  and  _122
REMARK   52  A    between atoms: _121  and  _124
REMARK   53  A    between atoms: _124  and  _125
REMARK   54  A    between atoms: _128  and  _130
REMARK   55  A    between atoms: _130  and  _131
REMARK   56  A    between atoms: _133  and  _135
REMARK   57  A    between atoms: _135  and  _136
REMARK   58  A    between atoms: _138  and  _140
REMARK   59  A    between atoms: _140  and  _141
REMARK   60  A    between atoms: _140  and  _143
REMARK   61  A    between atoms: _143  and  _144
REMARK   62  A    between atoms: _150  and  _152
REMARK   63  A    between atoms: _152  and  _153
REMARK   64  A    between atoms: _152  and  _155
REMARK   65  A    between atoms: _155  and  _156
REMARK   66  A    between atoms: _159  and  _161
REMARK   67  A    between atoms: _161  and  _162
REMARK   68  A    between atoms: _161  and  _164
REMARK   69  A    between atoms: _164  and  _165
REMARK   70  A    between atoms: _169  and  _170
REMARK   71  A    between atoms: _175  and  _177
REMARK   72  A    between atoms: _177  and  _178
REMARK   73  A    between atoms: _177  and  _180
REMARK   74  A    between atoms: _180  and  _181
REMARK   75  A    between atoms: _185  and  _186
REMARK   76  A    between atoms: _191  and  _193
REMARK   77  A    between atoms: _193  and  _194
REMARK   78  A    between atoms: _193  and  _196
REMARK   79  A    between atoms: _199  and  _201
REMARK   80  A    between atoms: _201  and  _202
REMARK   81  A    between atoms: _201  and  _204
REMARK   82  A    between atoms: _204  and  _205
REMARK   83  A    between atoms: _210  and  _212
REMARK   84  A    between atoms: _212  and  _213
REMARK   85  A    between atoms: _212  and  _215
REMARK   86  A    between atoms: _215  and  _216
REMARK   87  A    between atoms: _219  and  _221
REMARK   88  A    between atoms: _221  and  _222
REMARK   89  A    between atoms: _221  and  _224
REMARK   90  A    between atoms: _224  and  _225
REMARK   91  A    between atoms: _228  and  _230
REMARK   92  A    between atoms: _230  and  _231
REMARK   93  A    between atoms: _233  and  _235
REMARK   94  A    between atoms: _235  and  _236
REMARK   95  A    between atoms: _235  and  _238
REMARK   96  A    between atoms: _238  and  _239
REMARK   97  A    between atoms: _239  and  _240
REMARK   98  A    between atoms: _240  and  _241
REMARK   99  A    between atoms: _250  and  _252
REMARK  100  A    between atoms: _252  and  _253
REMARK  101  A    between atoms: _252  and  _255
REMARK  102  A    between atoms: _255  and  _256
REMARK  103  A    between atoms: _256  and  _257
REMARK  104  A    between atoms: _257  and  _258
REMARK  105  A    between atoms: _267  and  _269
REMARK  106  A    between atoms: _269  and  _270
REMARK  107  A    between atoms: _269  and  _272
REMARK  108  A    between atoms: _272  and  _273
REMARK  109  A    between atoms: _276  and  _278
REMARK  110  A    between atoms: _278  and  _279
REMARK  111  A    between atoms: _278  and  _281
REMARK  112  A    between atoms: _281  and  _282
REMARK  113  A    between atoms: _285  and  _287
REMARK  114  A    between atoms: _287  and  _288
REMARK  115  A    between atoms: _287  and  _290
REMARK  116  A    between atoms: _290  and  _291
REMARK  117  A    between atoms: _294  and  _296
REMARK  118  A    between atoms: _296  and  _297
REMARK  119  A    between atoms: _296  and  _299
REMARK  120  A    between atoms: _299  and  _300
REMARK  121  A    between atoms: _303  and  _305
REMARK  122  A    between atoms: _305  and  _306
REMARK  123  A    between atoms: _308  and  _310
REMARK  124  A    between atoms: _310  and  _311
REMARK  125  A    between atoms: _314  and  _316
REMARK  126  A    between atoms: _316  and  _317
REMARK  127  A    between atoms: _316  and  _319
REMARK  128  A    between atoms: _319  and  _320
REMARK  129  A    between atoms: _323  and  _325
REMARK  130  A    between atoms: _325  and  _326
REMARK  131  A    between atoms: _325  and  _328
REMARK  132  A    between atoms: _328  and  _329
REMARK  133  A    between atoms: _332  and  _334
REMARK  134  A    between atoms: _334  and  _335
REMARK  135  A    between atoms: _334  and  _337
REMARK  136  A    between atoms: _337  and  _338
REMARK  137  A    between atoms: _341  and  _343
REMARK  138  A    between atoms: _343  and  _344
REMARK  139  A    between atoms: _343  and  _346
REMARK  140  A    between atoms: _349  and  _351
REMARK  141  A    between atoms: _351  and  _352
REMARK  142  A    between atoms: _351  and  _354
REMARK  143  A    between atoms: _354  and  _355
REMARK  144  A    between atoms: _355  and  _356
REMARK  145  A    between atoms: _356  and  _357
REMARK  146  A    between atoms: _357  and  _358
REMARK  147  A    between atoms: _362  and  _364
REMARK  148  A    between atoms: _364  and  _365
REMARK  149  A    between atoms: _364  and  _367
REMARK  150  A    between atoms: _367  and  _368
REMARK  151  A    between atoms: _368  and  _369
REMARK  152  A    between atoms: _371  and  _373
REMARK  153  A    between atoms: _373  and  _374
REMARK  154  A    between atoms: _373  and  _376
REMARK  155  A    between atoms: _376  and  _377
REMARK  156  A    between atoms: _380  and  _382
REMARK  157  A    between atoms: _382  and  _383
REMARK  158  A    between atoms: _385  and  _387
REMARK  159  A    between atoms: _387  and  _388
REMARK  160  A    between atoms: _390  and  _392
REMARK  161  A    between atoms: _392  and  _393
REMARK  162  A    between atoms: _392  and  _395
REMARK  163  A    between atoms: _395  and  _396
REMARK  164  A    between atoms: _399  and  _401
REMARK  165  A    between atoms: _401  and  _402
REMARK  166  A    between atoms: _404  and  _406
REMARK  167  A    between atoms: _406  and  _407
REMARK  168  A    between atoms: _409  and  _411
REMARK  169  A    between atoms: _411  and  _412
REMARK  170  A    between atoms: _411  and  _414
REMARK  171  A    between atoms: _414  and  _415
REMARK  172  A    between atoms: _421  and  _423
REMARK  173  A    between atoms: _423  and  _424
REMARK  174  A    between atoms: _423  and  _426
REMARK  175  A    between atoms: _426  and  _427
REMARK  176  A    between atoms: _431  and  _432
REMARK  177  A    between atoms: _437  and  _439
REMARK  178  A    between atoms: _439  and  _440
REMARK  179  A    between atoms: _439  and  _442
REMARK  180  A    between atoms: _445  and  _447
REMARK  181  A    between atoms: _447  and  _448
REMARK  182  A    between atoms: _447  and  _450
REMARK  183  A    between atoms: _450  and  _451
REMARK  184  A    between atoms: _456  and  _458
REMARK  185  A    between atoms: _458  and  _459
REMARK  186  A    between atoms: _458  and  _461
REMARK  187  A    between atoms: _461  and  _462
REMARK  188  A    between atoms: _465  and  _467
REMARK  189  A    between atoms: _467  and  _468
REMARK  190  A    between atoms: _467  and  _470
REMARK  191  A    between atoms: _470  and  _471
REMARK  192  A    between atoms: _474  and  _476
REMARK  193  A    between atoms: _476  and  _477
REMARK  194  A    between atoms: _479  and  _481
REMARK  195  A    between atoms: _481  and  _482
REMARK  196  A    between atoms: _481  and  _484
REMARK  197  A    between atoms: _484  and  _485
REMARK  198  A    between atoms: _485  and  _486
REMARK  199  A    between atoms: _486  and  _487
REMARK                            x       y       z     vdW  Elec       q    Type
REMARK                         _______ _______ _______ _____ _____    ______ ____
ROOT
ATOM      1  C   ILE A   4      16.968  -4.513  22.020  0.00  0.00    +0.241 C 
ATOM      2  O   ILE A   4      15.852  -4.658  22.506  0.00  0.00    -0.273 OA
ATOM      3  N   GLY A   5      18.019  -5.263  22.369  0.00  0.00    -0.295 N 
ATOM      4  H   GLY A   5      18.952  -5.058  21.958  0.00  0.00    +0.150 HD
ENDROOT
BRANCH   3   5
ATOM      5  CA  GLY A   5      17.876  -6.376  23.327  0.00  0.00    +0.176 C 
BRANCH   5   6
ATOM      6  C   GLY A   5      18.434  -6.152  24.726  0.00  0.00    +0.243 C 
ATOM      7  O   GLY A   5      18.353  -7.035  25.574  0.00  0.00    -0.273 OA
ATOM      8  N   GLY A   6      18.989  -4.973  24.976  0.00  0.00    -0.295 N 
ATOM      9  H   GLY A   6      19.051  -4.271  24.211  0.00  0.00    +0.150 HD
BRANCH   8  10
ATOM     10  CA  GLY A   6      19.516  -4.634  26.296  0.00  0.00    +0.176 C 
BRANCH  10  11
ATOM     11  C   GLY A   6      20.873  -3.971  26.179  0.00  0.00    +0.243 C 
ATOM     12  N   PHE A   7      21.611  -3.944  27.289  0.00  0.00    -0.297 N 
ATOM     13  H   PHE A   7      21.266  -4.441  28.135  0.00  0.00    +0.150 HD
ATOM     14  O   GLY A   6      21.257  -3.536  25.097  0.00  0.00    -0.273 OA
BRANCH  12  15
ATOM     15  CA  PHE A   7      22.888  -3.239  27.354  0.00  0.00    +0.153 C 
BRANCH  15  16
ATOM     16  C   PHE A   7      24.075  -4.189  27.330  0.00  0.00    +0.241 C 
ATOM     17  O   PHE A   7      23.988  -5.334  27.805  0.00  0.00    -0.273 OA
ATOM     18  N   ILE A   8      25.182  -3.693  26.787  0.00  0.00    -0.298 N 
ATOM     19  H   ILE A   8      25.147  -2.742  26.368  0.00  0.00    +0.150 HD
BRANCH  18  20
ATOM     20  CA  ILE A   8      26.441  -4.422  26.752  0.00  0.00    +0.137 C 
BRANCH  20  21
ATOM     21  CB  ILE A   8      26.760  -4.974  25.329  0.00  0.00    +0.026 C 
ATOM     22  CG2 ILE A   8      25.692  -5.982  24.879  0.00  0.00    +0.002 C 
BRANCH  21  23
ATOM     23  CG1 ILE A   8      26.870  -3.833  24.311  0.00  0.00    +0.002 C 
ATOM     24  CD1 ILE A   8      27.492  -4.249  23.020  0.00  0.00    +0.000 C 
ENDBRANCH  21  23
ENDBRANCH  20  21
BRANCH  20  25
ATOM     25  C   ILE A   8      27.590  -3.516  27.202  0.00  0.00    +0.227 C 
ATOM     26  O   ILE A   8      27.479  -2.295  27.203  0.00  0.00    -0.286 OA
ENDBRANCH  20  25
ENDBRANCH  18  20
ENDBRANCH  15  16
BRANCH  15  27
ATOM     27  CB  PHE A   7      22.945  -2.368  28.614  0.00  0.00    +0.055 C 
BRANCH  27  28
ATOM     28  CG  PHE A   7      22.125  -1.127  28.510  0.00  0.00    -0.020 A 
ATOM     29  CD2 PHE A   7      20.739  -1.194  28.543  0.00  0.00    -0.004 A 
ATOM     30  CE2 PHE A   7      19.970  -0.044  28.435  0.00  0.00    -0.000 A 
ATOM     31  CZ  PHE A   7      20.583   1.182  28.297  0.00  0.00    -0.000 A 
ATOM     32  CE1 PHE A   7      21.964   1.271  28.268  0.00  0.00    -0.000 A 
ATOM     33  CD1 PHE A   7      22.733   0.115  28.367  0.00  0.00    -0.004 A 
ENDBRANCH  27  28
ENDBRANCH  15  27
ENDBRANCH  12  15
ENDBRANCH  10  11
ENDBRANCH   8  10
ENDBRANCH   5   6
ENDBRANCH   3   5
BRANCH   1  34
ATOM     34  CA  ILE A   4      17.187  -3.412  20.998  0.00  0.00    +0.149 C 
BRANCH  34  37
ATOM     35  C   GLY A   3      19.027  -2.318  22.108  0.00  0.00    +0.243 C 
ATOM     36  O   GLY A   3      18.415  -2.246  23.181  0.00  0.00    -0.273 OA
ATOM     37  N   ILE A   4      18.544  -2.928  21.037  0.00  0.00    -0.297 N 
ATOM     38  H   ILE A   4      19.156  -3.061  20.207  0.00  0.00    +0.150 HD
BRANCH  35  39
ATOM     39  CA  GLY A   3      20.408  -1.720  21.941  0.00  0.00    +0.176 C 
BRANCH  39  41
ATOM     40  C   GLY A   2      21.648  -0.239  23.449  0.00  0.00    +0.243 C 
ATOM     41  N   GLY A   3      20.952  -1.352  23.239  0.00  0.00    -0.295 N 
ATOM     42  H   GLY A   3      20.788  -1.991  24.043  0.00  0.00    +0.150 HD
ATOM     43  O   GLY A   2      21.906   0.594  22.574  0.00  0.00    -0.273 OA
BRANCH  40  44
ATOM     44  CA  GLY A   2      22.113  -0.047  24.869  0.00  0.00    +0.176 C 
BRANCH  44  47
ATOM     45  C   ILE A   1      24.491   0.113  25.366  0.00  0.00    +0.238 C 
ATOM     46  O   ILE A   1      24.592  -1.074  25.697  0.00  0.00    -0.274 OA
ATOM     47  N   GLY A   2      23.369   0.674  24.937  0.00  0.00    -0.296 N 
ATOM     48  H   GLY A   2      23.391   1.670  24.638  0.00  0.00    +0.150 HD
BRANCH  45  49
ATOM     49  CA  ILE A   1      25.684   1.042  25.420  0.00  0.00    +0.145 C 
BRANCH  49  50
ATOM     50  N   ILE A   1      26.657   0.564  26.398  0.00  0.00    -0.238 NA
ATOM     51  H   ILE A   1      26.933  -0.439  26.394  0.00  0.00    +0.142 HD
ENDBRANCH  49  50
BRANCH  49  52
ATOM     52  CB  ILE A   1      26.281   1.204  23.998  0.00  0.00    +0.025 C 
ATOM     53  CG2 ILE A   1      27.427   2.197  24.023  0.00  0.00    +0.002 C 
BRANCH  52  54
ATOM     54  CG1 ILE A   1      26.737  -0.140  23.419  0.00  0.00    +0.002 C 
ATOM     55  CD1 ILE A   1      27.220  -0.042  22.002  0.00  0.00    +0.000 C 
ENDBRANCH  52  54
ENDBRANCH  49  52
ENDBRANCH  45  49
ENDBRANCH  44  47
ENDBRANCH  40  44
ENDBRANCH  39  41
ENDBRANCH  35  39
ENDBRANCH  34  37
BRANCH  34  56
ATOM     56  CB  ILE A   4      16.782  -3.863  19.566  0.00  0.00    +0.027 C 
ATOM     57  CG2 ILE A   4      17.387  -5.209  19.213  0.00  0.00    +0.002 C 
BRANCH  56  58
ATOM     58  CG1 ILE A   4      15.267  -3.858  19.405  0.00  0.00    +0.002 C 
ATOM     59  CD1 ILE A   4      14.812  -4.233  18.005  0.00  0.00    +0.000 C 
ENDBRANCH  56  58
ENDBRANCH  34  56
ENDBRANCH   1  34
TORSDOF 24
REMARK  Name = ../refined-set-2016/2q54/2q54_pocket.pdb
REMARK  199 active torsions:
REMARK  status: ('A' for Active; 'I' for Inactive)
REMARK    1  A    between atoms: _1  and  _3
REMARK    2  A    between atoms: _3  and  _4
REMARK    3  A    between atoms: _3  and  _6
REMARK    4  A    between atoms: _6  and  _7
REMARK    5  A    between atoms: _7  and  _8
REMARK    6  A    between atoms: _8  and  _9
REMARK    7  A    between atoms: _18  and  _20
REMARK    8  A    between atoms: _20  and  _21
REMARK    9  A    between atoms: _20  and  _23
REMARK   10  A    between atoms: _23  and  _24
REMARK   11  A    between atoms: _27  and  _29
REMARK   12  A    between atoms: _29  and  _30
REMARK   13  A    between atoms: _29  and  _32
REMARK   14  A    between atoms: _32  and  _33
REMARK   15  A    between atoms: _36  and  _38
REMARK   16  A    between atoms: _38  and  _39
REMARK   17  A    between atoms: _38  and  _41
REMARK   18  A    between atoms: _41  and  _42
REMARK   19  A    between atoms: _45  and  _47
REMARK   20  A    between atoms: _47  and  _48
REMARK   21  A    between atoms: _47  and  _50
REMARK   22  A    between atoms: _50  and  _51
REMARK   23  A    between atoms: _54  and  _56
REMARK   24  A    between atoms: _56  and  _57
REMARK   25  A    between atoms: _59  and  _61
REMARK   26  A    between atoms: _61  and  _62
REMARK   27  A    between atoms: _65  and  _67
REMARK   28  A    between atoms: _67  and  _68
REMARK   29  A    between atoms: _67  and  _70
REMARK   30  A    between atoms: _70  and  _71
REMARK   31  A    between atoms: _74  and  _76
REMARK   32  A    between atoms: _76  and  _77
REMARK   33  A    between atoms: _76  and  _79
REMARK   34  A    between atoms: _79  and  _80
REMARK   35  A    between atoms: _83  and  _85
REMARK   36  A    between atoms: _85  and  _86
REMARK   37  A    between atoms: _85  and  _88
REMARK   38  A    between atoms: _88  and  _89
REMARK   39  A    between atoms: _92  and  _94
REMARK   40  A    between atoms: _94  and  _95
REMARK   41  A    between atoms: _94  and  _97
REMARK   42  A    between atoms: _100  and  _102
REMARK   43  A    between atoms: _102  and  _103
REMARK   44  A    between atoms: _102  and  _105
REMARK   45  A    between atoms: _105  and  _106
REMARK   46  A    between atoms: _109  and  _111
REMARK   47  A    between atoms: _111  and  _112
REMARK   48  A    between atoms: _114  and  _116
REMARK   49  A    between atoms: _116  and  _117
REMARK   50  A    between atoms: _119  and  _121
REMARK   51  A    between atoms: _121  and  _122
REMARK   52  A    between atoms: _121  and  _124
REMARK   53  A    between atoms: _124  and  _125
REMARK   54  A    between atoms: _128  and  _130
REMARK   55  A    between atoms: _130  and  _131
REMARK   56  A    between atoms: _133  and  _135
REMARK   57  A    between atoms: _135  and  _136
REMARK   58  A    between atoms: _138  and  _140
REMARK   59  A    between atoms: _140  and  _141
REMARK   60  A    between atoms: _140  and  _143
REMARK   61  A    between atoms: _143  and  _144
REMARK   62  A    between atoms: _150  and  _152
REMARK   63  A    between atoms: _152  and  _153
REMARK   64  A    between atoms: _152  and  _155
REMARK   65  A    between atoms: _155  and  _156
REMARK   66  A    between atoms: _159  and  _161
REMARK   67  A    between atoms: _161  and  _162
REMARK   68  A    between atoms: _161  and  _164
REMARK   69  A    between atoms: _164  and  _165
REMARK   70  A    between atoms: _169  and  _170
REMARK   71  A    between atoms: _175  and  _177
REMARK   72  A    between atoms: _177  and  _178
REMARK   73  A    between atoms: _177  and  _180
REMARK   74  A    between atoms: _180  and  _181
REMARK   75  A    between atoms: _185  and  _186
REMARK   76  A    between atoms: _191  and  _193
REMARK   77  A    between atoms: _193  and  _194
REMARK   78  A    between atoms: _193  and  _196
REMARK   79  A    between atoms: _199  and  _201
REMARK   80  A    between atoms: _201  and  _202
REMARK   81  A    between atoms: _201  and  _204
REMARK   82  A    between atoms: _204  and  _205
REMARK   83  A    between atoms: _210  and  _212
REMARK   84  A    between atoms: _212  and  _213
REMARK   85  A    between atoms: _212  and  _215
REMARK   86  A    between atoms: _215  and  _216
REMARK   87  A    between atoms: _219  and  _221
REMARK   88  A    between atoms: _221  and  _222
REMARK   89  A    between atoms: _221  and  _224
REMARK   90  A    between atoms: _224  and  _225
REMARK   91  A    between atoms: _228  and  _230
REMARK   92  A    between atoms: _230  and  _231
REMARK   93  A    between atoms: _233  and  _235
REMARK   94  A    between atoms: _235  and  _236
REMARK   95  A    between atoms: _235  and  _238
REMARK   96  A    between atoms: _238  and  _239
REMARK   97  A    between atoms: _239  and  _240
REMARK   98  A    between atoms: _240  and  _241
REMARK   99  A    between atoms: _250  and  _252
REMARK  100  A    between atoms: _252  and  _253
REMARK  101  A    between atoms: _252  and  _255
REMARK  102  A    between atoms: _255  and  _256
REMARK  103  A    between atoms: _256  and  _257
REMARK  104  A    between atoms: _257  and  _258
REMARK  105  A    between atoms: _267  and  _269
REMARK  106  A    between atoms: _269  and  _270
REMARK  107  A    between atoms: _269  and  _272
REMARK  108  A    between atoms: _272  and  _273
REMARK  109  A    between atoms: _276  and  _278
REMARK  110  A    between atoms: _278  and  _279
REMARK  111  A    between atoms: _278  and  _281
REMARK  112  A    between atoms: _281  and  _282
REMARK  113  A    between atoms: _285  and  _287
REMARK  114  A    between atoms: _287  and  _288
REMARK  115  A    between atoms: _287  and  _290
REMARK  116  A    between atoms: _290  and  _291
REMARK  117  A    between atoms: _294  and  _296
REMARK  118  A    between atoms: _296  and  _297
REMARK  119  A    between atoms: _296  and  _299
REMARK  120  A    between atoms: _299  and  _300
REMARK  121  A    between atoms: _303  and  _305
REMARK  122  A    between atoms: _305  and  _306
REMARK  123  A    between atoms: _308  and  _310
REMARK  124  A    between atoms: _310  and  _311
REMARK  125  A    between atoms: _314  and  _316
REMARK  126  A    between atoms: _316  and  _317
REMARK  127  A    between atoms: _316  and  _319
REMARK  128  A    between atoms: _319  and  _320
REMARK  129  A    between atoms: _323  and  _325
REMARK  130  A    between atoms: _325  and  _326
REMARK  131  A    between atoms: _325  and  _328
REMARK  132  A    between atoms: _328  and  _329
REMARK  133  A    between atoms: _332  and  _334
REMARK  134  A    between atoms: _334  and  _335
REMARK  135  A    between atoms: _334  and  _337
REMARK  136  A    between atoms: _337  and  _338
REMARK  137  A    between atoms: _341  and  _343
REMARK  138  A    between atoms: _343  and  _344
REMARK  139  A    between atoms: _343  and  _346
REMARK  140  A    between atoms: _349  and  _351
REMARK  141  A    between atoms: _351  and  _352
REMARK  142  A    between atoms: _351  and  _354
REMARK  143  A    between atoms: _354  and  _355
REMARK  144  A    between atoms: _355  and  _356
REMARK  145  A    between atoms: _356  and  _357
REMARK  146  A    between atoms: _357  and  _358
REMARK  147  A    between atoms: _362  and  _364
REMARK  148  A    between atoms: _364  and  _365
REMARK  149  A    between atoms: _364  and  _367
REMARK  150  A    between atoms: _367  and  _368
REMARK  151  A    between atoms: _368  and  _369
REMARK  152  A    between atoms: _371  and  _373
REMARK  153  A    between atoms: _373  and  _374
REMARK  154  A    between atoms: _373  and  _376
REMARK  155  A    between atoms: _376  and  _377
REMARK  156  A    between atoms: _380  and  _382
REMARK  157  A    between atoms: _382  and  _383
REMARK  158  A    between atoms: _385  and  _387
REMARK  159  A    between atoms: _387  and  _388
REMARK  160  A    between atoms: _390  and  _392
REMARK  161  A    between atoms: _392  and  _393
REMARK  162  A    between atoms: _392  and  _395
REMARK  163  A    between atoms: _395  and  _396
REMARK  164  A    between atoms: _399  and  _401
REMARK  165  A    between atoms: _401  and  _402
REMARK  166  A    between atoms: _404  and  _406
REMARK  167  A    between atoms: _406  and  _407
REMARK  168  A    between atoms: _409  and  _411
REMARK  169  A    between atoms: _411  and  _412
REMARK  170  A    between atoms: _411  and  _414
REMARK  171  A    between atoms: _414  and  _415
REMARK  172  A    between atoms: _421  and  _423
REMARK  173  A    between atoms: _423  and  _424
REMARK  174  A    between atoms: _423  and  _426
REMARK  175  A    between atoms: _426  and  _427
REMARK  176  A    between atoms: _431  and  _432
REMARK  177  A    between atoms: _437  and  _439
REMARK  178  A    between atoms: _439  and  _440
REMARK  179  A    between atoms: _439  and  _442
REMARK  180  A    between atoms: _445  and  _447
REMARK  181  A    between atoms: _447  and  _448
REMARK  182  A    between atoms: _447  and  _450
REMARK  183  A    between atoms: _450  and  _451
REMARK  184  A    between atoms: _456  and  _458
REMARK  185  A    between atoms: _458  and  _459
REMARK  186  A    between atoms: _458  and  _461
REMARK  187  A    between atoms: _461  and  _462
REMARK  188  A    between atoms: _465  and  _467
REMARK  189  A    between atoms: _467  and  _468
REMARK  190  A    between atoms: _467  and  _470
REMARK  191  A    between atoms: _470  and  _471
REMARK  192  A    between atoms: _474  and  _476
REMARK  193  A    between atoms: _476  and  _477
REMARK  194  A    between atoms: _479  and  _481
REMARK  195  A    between atoms: _481  and  _482
REMARK  196  A    between atoms: _481  and  _484
REMARK  197  A    between atoms: _484  and  _485
REMARK  198  A    between atoms: _485  and  _486
REMARK  199  A    between atoms: _486  and  _487
REMARK                            x       y       z     vdW  Elec       q    Type
REMARK                         _______ _______ _______ _____ _____    ______ ____
ROOT
ATOM      1  CA  LEU A   1      33.465   1.259  20.465  0.00  0.00    +0.133 C 
ENDROOT
BRANCH   1   2
ATOM      2  N   LEU A   1      33.725   2.159  19.355  0.00  0.00    -0.239 NA
ATOM      3  H   LEU A   1      32.977   2.307  18.648  0.00  0.00    +0.142 HD
ENDBRANCH   1   2
BRANCH   1   4
ATOM      4  C   LEU A   1      33.720  -0.176  19.995  0.00  0.00    +0.224 C 
ATOM      5  O   LEU A   1      33.421  -0.530  18.845  0.00  0.00    -0.287 OA
ENDBRANCH   1   4
BRANCH   1   6
ATOM      6  CB  LEU A   1      32.023   1.421  20.972  0.00  0.00    +0.025 C 
BRANCH   6   7
ATOM      7  CG  LEU A   1      31.528   2.854  21.221  0.00  0.00    +0.002 C 
ATOM      8  CD2 LEU A   1      32.390   3.574  22.261  0.00  0.00    +0.000 C 
ATOM      9  CD1 LEU A   1      30.076   2.850  21.652  0.00  0.00    +0.000 C 
ENDBRANCH   6   7
ENDBRANCH   1   6
TORSDOF 4
REMARK  Name = ../refined-set-2016/2q54/2q54_pocket.pdb
REMARK  199 active torsions:
REMARK  status: ('A' for Active; 'I' for Inactive)
REMARK    1  A    between atoms: _1  and  _3
REMARK    2  A    between atoms: _3  and  _4
REMARK    3  A    between atoms: _3  and  _6
REMARK    4  A    between atoms: _6  and  _7
REMARK    5  A    between atoms: _7  and  _8
REMARK    6  A    between atoms: _8  and  _9
REMARK    7  A    between atoms: _18  and  _20
REMARK    8  A    between atoms: _20  and  _21
REMARK    9  A    between atoms: _20  and  _23
REMARK   10  A    between atoms: _23  and  _24
REMARK   11  A    between atoms: _27  and  _29
REMARK   12  A    between atoms: _29  and  _30
REMARK   13  A    between atoms: _29  and  _32
REMARK   14  A    between atoms: _32  and  _33
REMARK   15  A    between atoms: _36  and  _38
REMARK   16  A    between atoms: _38  and  _39
REMARK   17  A    between atoms: _38  and  _41
REMARK   18  A    between atoms: _41  and  _42
REMARK   19  A    between atoms: _45  and  _47
REMARK   20  A    between atoms: _47  and  _48
REMARK   21  A    between atoms: _47  and  _50
REMARK   22  A    between atoms: _50  and  _51
REMARK   23  A    between atoms: _54  and  _56
REMARK   24  A    between atoms: _56  and  _57
REMARK   25  A    between atoms: _59  and  _61
REMARK   26  A    between atoms: _61  and  _62
REMARK   27  A    between atoms: _65  and  _67
REMARK   28  A    between atoms: _67  and  _68
REMARK   29  A    between atoms: _67  and  _70
REMARK   30  A    between atoms: _70  and  _71
REMARK   31  A    between atoms: _74  and  _76
REMARK   32  A    between atoms: _76  and  _77
REMARK   33  A    between atoms: _76  and  _79
REMARK   34  A    between atoms: _79  and  _80
REMARK   35  A    between atoms: _83  and  _85
REMARK   36  A    between atoms: _85  and  _86
REMARK   37  A    between atoms: _85  and  _88
REMARK   38  A    between atoms: _88  and  _89
REMARK   39  A    between atoms: _92  and  _94
REMARK   40  A    between atoms: _94  and  _95
REMARK   41  A    between atoms: _94  and  _97
REMARK   42  A    between atoms: _100  and  _102
REMARK   43  A    between atoms: _102  and  _103
REMARK   44  A    between atoms: _102  and  _105
REMARK   45  A    between atoms: _105  and  _106
REMARK   46  A    between atoms: _109  and  _111
REMARK   47  A    between atoms: _111  and  _112
REMARK   48  A    between atoms: _114  and  _116
REMARK   49  A    between atoms: _116  and  _117
REMARK   50  A    between atoms: _119  and  _121
REMARK   51  A    between atoms: _121  and  _122
REMARK   52  A    between atoms: _121  and  _124
REMARK   53  A    between atoms: _124  and  _125
REMARK   54  A    between atoms: _128  and  _130
REMARK   55  A    between atoms: _130  and  _131
REMARK   56  A    between atoms: _133  and  _135
REMARK   57  A    between atoms: _135  and  _136
REMARK   58  A    between atoms: _138  and  _140
REMARK   59  A    between atoms: _140  and  _141
REMARK   60  A    between atoms: _140  and  _143
REMARK   61  A    between atoms: _143  and  _144
REMARK   62  A    between atoms: _150  and  _152
REMARK   63  A    between atoms: _152  and  _153
REMARK   64  A    between atoms: _152  and  _155
REMARK   65  A    between atoms: _155  and  _156
REMARK   66  A    between atoms: _159  and  _161
REMARK   67  A    between atoms: _161  and  _162
REMARK   68  A    between atoms: _161  and  _164
REMARK   69  A    between atoms: _164  and  _165
REMARK   70  A    between atoms: _169  and  _170
REMARK   71  A    between atoms: _175  and  _177
REMARK   72  A    between atoms: _177  and  _178
REMARK   73  A    between atoms: _177  and  _180
REMARK   74  A    between atoms: _180  and  _181
REMARK   75  A    between atoms: _185  and  _186
REMARK   76  A    between atoms: _191  and  _193
REMARK   77  A    between atoms: _193  and  _194
REMARK   78  A    between atoms: _193  and  _196
REMARK   79  A    between atoms: _199  and  _201
REMARK   80  A    between atoms: _201  and  _202
REMARK   81  A    between atoms: _201  and  _204
REMARK   82  A    between atoms: _204  and  _205
REMARK   83  A    between atoms: _210  and  _212
REMARK   84  A    between atoms: _212  and  _213
REMARK   85  A    between atoms: _212  and  _215
REMARK   86  A    between atoms: _215  and  _216
REMARK   87  A    between atoms: _219  and  _221
REMARK   88  A    between atoms: _221  and  _222
REMARK   89  A    between atoms: _221  and  _224
REMARK   90  A    between atoms: _224  and  _225
REMARK   91  A    between atoms: _228  and  _230
REMARK   92  A    between atoms: _230  and  _231
REMARK   93  A    between atoms: _233  and  _235
REMARK   94  A    between atoms: _235  and  _236
REMARK   95  A    between atoms: _235  and  _238
REMARK   96  A    between atoms: _238  and  _239
REMARK   97  A    between atoms: _239  and  _240
REMARK   98  A    between atoms: _240  and  _241
REMARK   99  A    between atoms: _250  and  _252
REMARK  100  A    between atoms: _252  and  _253
REMARK  101  A    between atoms: _252  and  _255
REMARK  102  A    between atoms: _255  and  _256
REMARK  103  A    between atoms: _256  and  _257
REMARK  104  A    between atoms: _257  and  _258
REMARK  105  A    between atoms: _267  and  _269
REMARK  106  A    between atoms: _269  and  _270
REMARK  107  A    between atoms: _269  and  _272
REMARK  108  A    between atoms: _272  and  _273
REMARK  109  A    between atoms: _276  and  _278
REMARK  110  A    between atoms: _278  and  _279
REMARK  111  A    between atoms: _278  and  _281
REMARK  112  A    between atoms: _281  and  _282
REMARK  113  A    between atoms: _285  and  _287
REMARK  114  A    between atoms: _287  and  _288
REMARK  115  A    between atoms: _287  and  _290
REMARK  116  A    between atoms: _290  and  _291
REMARK  117  A    between atoms: _294  and  _296
REMARK  118  A    between atoms: _296  and  _297
REMARK  119  A    between atoms: _296  and  _299
REMARK  120  A    between atoms: _299  and  _300
REMARK  121  A    between atoms: _303  and  _305
REMARK  122  A    between atoms: _305  and  _306
REMARK  123  A    between atoms: _308  and  _310
REMARK  124  A    between atoms: _310  and  _311
REMARK  125  A    between atoms: _314  and  _316
REMARK  126  A    between atoms: _316  and  _317
REMARK  127  A    between atoms: _316  and  _319
REMARK  128  A    between atoms: _319  and  _320
REMARK  129  A    between atoms: _323  and  _325
REMARK  130  A    between atoms: _325  and  _326
REMARK  131  A    between atoms: _325  and  _328
REMARK  132  A    between atoms: _328  and  _329
REMARK  133  A    between atoms: _332  and  _334
REMARK  134  A    between atoms: _334  and  _335
REMARK  135  A    between atoms: _334  and  _337
REMARK  136  A    between atoms: _337  and  _338
REMARK  137  A    between atoms: _341  and  _343
REMARK  138  A    between atoms: _343  and  _344
REMARK  139  A    between atoms: _343  and  _346
REMARK  140  A    between atoms: _349  and  _351
REMARK  141  A    between atoms: _351  and  _352
REMARK  142  A    between atoms: _351  and  _354
REMARK  143  A    between atoms: _354  and  _355
REMARK  144  A    between atoms: _355  and  _356
REMARK  145  A    between atoms: _356  and  _357
REMARK  146  A    between atoms: _357  and  _358
REMARK  147  A    between atoms: _362  and  _364
REMARK  148  A    between atoms: _364  and  _365
REMARK  149  A    between atoms: _364  and  _367
REMARK  150  A    between atoms: _367  and  _368
REMARK  151  A    between atoms: _368  and  _369
REMARK  152  A    between atoms: _371  and  _373
REMARK  153  A    between atoms: _373  and  _374
REMARK  154  A    between atoms: _373  and  _376
REMARK  155  A    between atoms: _376  and  _377
REMARK  156  A    between atoms: _380  and  _382
REMARK  157  A    between atoms: _382  and  _383
REMARK  158  A    between atoms: _385  and  _387
REMARK  159  A    between atoms: _387  and  _388
REMARK  160  A    between atoms: _390  and  _392
REMARK  161  A    between atoms: _392  and  _393
REMARK  162  A    between atoms: _392  and  _395
REMARK  163  A    between atoms: _395  and  _396
REMARK  164  A    between atoms: _399  and  _401
REMARK  165  A    between atoms: _401  and  _402
REMARK  166  A    between atoms: _404  and  _406
REMARK  167  A    between atoms: _406  and  _407
REMARK  168  A    between atoms: _409  and  _411
REMARK  169  A    between atoms: _411  and  _412
REMARK  170  A    between atoms: _411  and  _414
REMARK  171  A    between atoms: _414  and  _415
REMARK  172  A    between atoms: _421  and  _423
REMARK  173  A    between atoms: _423  and  _424
REMARK  174  A    between atoms: _423  and  _426
REMARK  175  A    between atoms: _426  and  _427
REMARK  176  A    between atoms: _431  and  _432
REMARK  177  A    between atoms: _437  and  _439
REMARK  178  A    between atoms: _439  and  _440
REMARK  179  A    between atoms: _439  and  _442
REMARK  180  A    between atoms: _445  and  _447
REMARK  181  A    between atoms: _447  and  _448
REMARK  182  A    between atoms: _447  and  _450
REMARK  183  A    between atoms: _450  and  _451
REMARK  184  A    between atoms: _456  and  _458
REMARK  185  A    between atoms: _458  and  _459
REMARK  186  A    between atoms: _458  and  _461
REMARK  187  A    between atoms: _461  and  _462
REMARK  188  A    between atoms: _465  and  _467
REMARK  189  A    between atoms: _467  and  _468
REMARK  190  A    between atoms: _467  and  _470
REMARK  191  A    between atoms: _470  and  _471
REMARK  192  A    between atoms: _474  and  _476
REMARK  193  A    between atoms: _476  and  _477
REMARK  194  A    between atoms: _479  and  _481
REMARK  195  A    between atoms: _481  and  _482
REMARK  196  A    between atoms: _481  and  _484
REMARK  197  A    between atoms: _484  and  _485
REMARK  198  A    between atoms: _485  and  _486
REMARK  199  A    between atoms: _486  and  _487
REMARK                            x       y       z     vdW  Elec       q    Type
REMARK                         _______ _______ _______ _____ _____    ______ ____
ROOT
ATOM      1  C   ASN A   5      29.345  -3.097  12.243  0.00  0.00    +0.241 C 
ATOM      2  N   ILE A   6      29.261  -2.027  13.014  0.00  0.00    -0.297 N 
ATOM      3  H   ILE A   6      29.929  -1.921  13.804  0.00  0.00    +0.150 HD
ATOM      4  O   ASN A   5      28.711  -3.225  11.197  0.00  0.00    -0.273 OA
ENDROOT
BRANCH   1   5
ATOM      5  CA  ASN A   5      30.281  -4.186  12.721  0.00  0.00    +0.158 C 
BRANCH   5   8
ATOM      6  C   VAL A   4      28.612  -5.718  13.645  0.00  0.00    +0.241 C 
ATOM      7  O   VAL A   4      28.365  -4.958  14.585  0.00  0.00    -0.273 OA
ATOM      8  N   ASN A   5      29.549  -5.461  12.738  0.00  0.00    -0.297 N 
ATOM      9  H   ASN A   5      29.770  -6.181  12.021  0.00  0.00    +0.150 HD
BRANCH   6  10
ATOM     10  CA  VAL A   4      27.829  -7.016  13.460  0.00  0.00    +0.149 C 
BRANCH  10  12
ATOM     11  C   PRO A   3      27.114  -8.729  15.059  0.00  0.00    +0.241 C 
ATOM     12  N   VAL A   4      27.243  -7.445  14.731  0.00  0.00    -0.297 N 
ATOM     13  H   VAL A   4      26.916  -6.721  15.402  0.00  0.00    +0.150 HD
ATOM     14  O   PRO A   3      27.385  -9.651  14.290  0.00  0.00    -0.273 OA
BRANCH  11  21
ATOM     15  C   THR A   2      27.905  -7.637  17.909  0.00  0.00    +0.246 C 
ATOM     16  O   THR A   2      28.916  -8.241  17.572  0.00  0.00    -0.273 OA
ATOM     17  N   PRO A   3      26.684  -7.986  17.468  0.00  0.00    -0.272 N 
ATOM     18  CD  PRO A   3      25.381  -7.461  17.907  0.00  0.00    +0.094 C 
ATOM     19  CG  PRO A   3      24.446  -8.538  17.529  0.00  0.00    +0.024 C 
ATOM     20  CB  PRO A   3      25.007  -9.180  16.323  0.00  0.00    +0.031 C 
ATOM     21  CA  PRO A   3      26.527  -9.037  16.448  0.00  0.00    +0.152 C 
BRANCH  15  22
ATOM     22  CA  THR A   2      28.005  -6.458  18.877  0.00  0.00    +0.176 C 
BRANCH  22  25
ATOM     23  C   PRO A   1      28.841  -7.598  20.830  0.00  0.00    +0.239 C 
ATOM     24  O   PRO A   1      27.739  -8.049  21.084  0.00  0.00    -0.274 OA
ATOM     25  N   THR A   2      29.047  -6.738  19.848  0.00  0.00    -0.295 N 
ATOM     26  H   THR A   2      29.966  -6.257  19.770  0.00  0.00    +0.150 HD
BRANCH  23  31
ATOM     27  N   PRO A   1      30.850  -6.898  22.168  0.00  0.00    -0.210 NA
ATOM     28  CD  PRO A   1      30.640  -6.723  23.621  0.00  0.00    +0.089 C 
ATOM     29  CG  PRO A   1      29.514  -7.686  23.938  0.00  0.00    +0.021 C 
ATOM     30  CB  PRO A   1      29.647  -8.761  22.916  0.00  0.00    +0.028 C 
ATOM     31  CA  PRO A   1      30.062  -8.015  21.646  0.00  0.00    +0.149 C 
ENDBRANCH  23  31
ENDBRANCH  22  25
BRANCH  22  32
ATOM     32  CB  THR A   2      28.269  -5.153  18.101  0.00  0.00    +0.137 C 
ATOM     33  CG2 THR A   2      29.680  -5.128  17.495  0.00  0.00    +0.034 C 
BRANCH  32  34
ATOM     34  OG1 THR A   2      27.282  -5.016  17.069  0.00  0.00    -0.382 OA
ATOM     35  HG1 THR A   2      27.341  -5.789  16.453  0.00  0.00    +0.210 HD
ENDBRANCH  32  34
ENDBRANCH  22  32
ENDBRANCH  15  22
ENDBRANCH  11  21
ENDBRANCH  10  12
BRANCH  10  36
ATOM     36  CB  VAL A   4      26.750  -6.790  12.364  0.00  0.00    +0.027 C 
ATOM     37  CG2 VAL A   4      25.926  -5.524  12.641  0.00  0.00    +0.002 C 
ATOM     38  CG1 VAL A   4      25.834  -7.997  12.221  0.00  0.00    +0.002 C 
ENDBRANCH  10  36
ENDBRANCH   6  10
ENDBRANCH   5   8
BRANCH   5  39
ATOM     39  CB  ASN A   5      31.486  -4.232  11.780  0.00  0.00    +0.114 C 
BRANCH  39  40
ATOM     40  CG  ASN A   5      32.529  -5.209  12.214  0.00  0.00    +0.222 C 
ATOM     41  OD1 ASN A   5      32.869  -5.298  13.402  0.00  0.00    -0.275 OA
ATOM     42  ND2 ASN A   5      33.060  -5.964  11.253  0.00  0.00    -0.329 N 
ATOM     43 HD21 ASN A   5      33.792  -6.664  11.487  0.00  0.00    +0.145 HD
ATOM     44 HD22 ASN A   5      32.742  -5.853  10.269  0.00  0.00    +0.145 HD
ENDBRANCH  39  40
ENDBRANCH   5  39
ENDBRANCH   1   5
BRANCH   2  45
ATOM     45  CA  ILE A   6      28.268  -0.998  12.792  0.00  0.00    +0.149 C 
BRANCH  45  46
ATOM     46  C   ILE A   6      28.968   0.338  12.673  0.00  0.00    +0.241 C 
ATOM     47  O   ILE A   6      29.718   0.715  13.568  0.00  0.00    -0.273 OA
ATOM     48  N   ILE A   7      28.731   1.040  11.564  0.00  0.00    -0.297 N 
ATOM     49  H   ILE A   7      28.233   0.584  10.773  0.00  0.00    +0.150 HD
BRANCH  48  50
ATOM     50  CA  ILE A   7      29.152   2.431  11.431  0.00  0.00    +0.149 C 
BRANCH  50  51
ATOM     51  C   ILE A   7      27.971   3.331  11.794  0.00  0.00    +0.241 C 
ATOM     52  N   GLY A   8      28.102   4.064  12.899  0.00  0.00    -0.295 N 
ATOM     53  H   GLY A   8      28.998   4.035  13.426  0.00  0.00    +0.150 HD
ATOM     54  O   ILE A   7      26.969   3.369  11.077  0.00  0.00    -0.273 OA
BRANCH  52  55
ATOM     55  CA  GLY A   8      27.013   4.908  13.387  0.00  0.00    +0.176 C 
BRANCH  55  56
ATOM     56  C   GLY A   8      27.116   6.356  12.958  0.00  0.00    +0.243 C 
ATOM     57  N   ARG A   9      26.174   7.158  13.432  0.00  0.00    -0.298 N 
ATOM     58  H   ARG A   9      25.506   6.791  14.140  0.00  0.00    +0.150 HD
ATOM     59  O   GLY A   8      28.055   6.755  12.265  0.00  0.00    -0.273 OA
BRANCH  57  60
ATOM     60  CA  ARG A   9      26.048   8.543  12.988  0.00  0.00    +0.137 C 
BRANCH  60  61
ATOM     61  C   ARG A   9      27.291   9.389  13.265  0.00  0.00    +0.227 C 
ATOM     62  O   ARG A   9      27.585  10.302  12.505  0.00  0.00    -0.286 OA
ENDBRANCH  60  61
BRANCH  60  63
ATOM     63  CB  ARG A   9      24.808   9.197  13.593  0.00  0.00    +0.031 C 
BRANCH  63  64
ATOM     64  CG  ARG A   9      23.512   8.673  12.984  0.00  0.00    +0.045 C 
BRANCH  64  65
ATOM     65  CD  ARG A   9      22.266   9.394  13.487  0.00  0.00    +0.174 C 
BRANCH  65  66
ATOM     66  NE  ARG A   9      22.161   9.334  14.947  0.00  0.00    -0.265 N 
ATOM     67  CZ  ARG A   9      22.551  10.297  15.787  0.00  0.00    +0.342 C 
ATOM     68  NH2 ARG A   9      22.433  10.095  17.086  0.00  0.00    -0.292 N 
ATOM     69 HH21 ARG A   9      22.731  10.832  17.756  0.00  0.00    +0.255 HD
ATOM     70 HH22 ARG A   9      22.042   9.198  17.439  0.00  0.00    +0.255 HD
ATOM     71  NH1 ARG A   9      23.071  11.452  15.353  0.00  0.00    -0.292 N 
ATOM     72 HH11 ARG A   9      23.364  12.180  16.036  0.00  0.00    +0.255 HD
ATOM     73 HH12 ARG A   9      23.182  11.622  14.333  0.00  0.00    +0.255 HD
ATOM     74  HE  ARG A   9      21.750   8.474  15.363  0.00  0.00    +0.259 HD
ENDBRANCH  65  66
ENDBRANCH  64  65
ENDBRANCH  63  64
ENDBRANCH  60  63
ENDBRANCH  57  60
ENDBRANCH  55  56
ENDBRANCH  52  55
ENDBRANCH  50  51
BRANCH  50  75
ATOM     75  CB  ILE A   7      29.608   2.761   9.993  0.00  0.00    +0.027 C 
ATOM     76  CG2 ILE A   7      30.083   4.208   9.907  0.00  0.00    +0.002 C 
BRANCH  75  77
ATOM     77  CG1 ILE A   7      30.698   1.784   9.539  0.00  0.00    +0.002 C 
ATOM     78  CD1 ILE A   7      31.896   1.728  10.463  0.00  0.00    +0.000 C 
ENDBRANCH  75  77
ENDBRANCH  50  75
ENDBRANCH  48  50
ENDBRANCH  45  46
BRANCH  45  79
ATOM     79  CB  ILE A   6      27.269  -0.977  13.966  0.00  0.00    +0.027 C 
ATOM     80  CG2 ILE A   6      26.468   0.298  13.997  0.00  0.00    +0.002 C 
BRANCH  79  81
ATOM     81  CG1 ILE A   6      26.322  -2.180  13.874  0.00  0.00    +0.002 C 
ATOM     82  CD1 ILE A   6      25.690  -2.529  15.190  0.00  0.00    +0.000 C 
ENDBRANCH  79  81
ENDBRANCH  45  79
ENDBRANCH   2  45
TORSDOF 29
REMARK  Name = ../refined-set-2016/2q54/2q54_pocket.pdb
REMARK  199 active torsions:
REMARK  status: ('A' for Active; 'I' for Inactive)
REMARK    1  A    between atoms: _1  and  _3
REMARK    2  A    between atoms: _3  and  _4
REMARK    3  A    between atoms: _3  and  _6
REMARK    4  A    between atoms: _6  and  _7
REMARK    5  A    between atoms: _7  and  _8
REMARK    6  A    between atoms: _8  and  _9
REMARK    7  A    between atoms: _18  and  _20
REMARK    8  A    between atoms: _20  and  _21
REMARK    9  A    between atoms: _20  and  _23
REMARK   10  A    between atoms: _23  and  _24
REMARK   11  A    between atoms: _27  and  _29
REMARK   12  A    between atoms: _29  and  _30
REMARK   13  A    between atoms: _29  and  _32
REMARK   14  A    between atoms: _32  and  _33
REMARK   15  A    between atoms: _36  and  _38
REMARK   16  A    between atoms: _38  and  _39
REMARK   17  A    between atoms: _38  and  _41
REMARK   18  A    between atoms: _41  and  _42
REMARK   19  A    between atoms: _45  and  _47
REMARK   20  A    between atoms: _47  and  _48
REMARK   21  A    between atoms: _47  and  _50
REMARK   22  A    between atoms: _50  and  _51
REMARK   23  A    between atoms: _54  and  _56
REMARK   24  A    between atoms: _56  and  _57
REMARK   25  A    between atoms: _59  and  _61
REMARK   26  A    between atoms: _61  and  _62
REMARK   27  A    between atoms: _65  and  _67
REMARK   28  A    between atoms: _67  and  _68
REMARK   29  A    between atoms: _67  and  _70
REMARK   30  A    between atoms: _70  and  _71
REMARK   31  A    between atoms: _74  and  _76
REMARK   32  A    between atoms: _76  and  _77
REMARK   33  A    between atoms: _76  and  _79
REMARK   34  A    between atoms: _79  and  _80
REMARK   35  A    between atoms: _83  and  _85
REMARK   36  A    between atoms: _85  and  _86
REMARK   37  A    between atoms: _85  and  _88
REMARK   38  A    between atoms: _88  and  _89
REMARK   39  A    between atoms: _92  and  _94
REMARK   40  A    between atoms: _94  and  _95
REMARK   41  A    between atoms: _94  and  _97
REMARK   42  A    between atoms: _100  and  _102
REMARK   43  A    between atoms: _102  and  _103
REMARK   44  A    between atoms: _102  and  _105
REMARK   45  A    between atoms: _105  and  _106
REMARK   46  A    between atoms: _109  and  _111
REMARK   47  A    between atoms: _111  and  _112
REMARK   48  A    between atoms: _114  and  _116
REMARK   49  A    between atoms: _116  and  _117
REMARK   50  A    between atoms: _119  and  _121
REMARK   51  A    between atoms: _121  and  _122
REMARK   52  A    between atoms: _121  and  _124
REMARK   53  A    between atoms: _124  and  _125
REMARK   54  A    between atoms: _128  and  _130
REMARK   55  A    between atoms: _130  and  _131
REMARK   56  A    between atoms: _133  and  _135
REMARK   57  A    between atoms: _135  and  _136
REMARK   58  A    between atoms: _138  and  _140
REMARK   59  A    between atoms: _140  and  _141
REMARK   60  A    between atoms: _140  and  _143
REMARK   61  A    between atoms: _143  and  _144
REMARK   62  A    between atoms: _150  and  _152
REMARK   63  A    between atoms: _152  and  _153
REMARK   64  A    between atoms: _152  and  _155
REMARK   65  A    between atoms: _155  and  _156
REMARK   66  A    between atoms: _159  and  _161
REMARK   67  A    between atoms: _161  and  _162
REMARK   68  A    between atoms: _161  and  _164
REMARK   69  A    between atoms: _164  and  _165
REMARK   70  A    between atoms: _169  and  _170
REMARK   71  A    between atoms: _175  and  _177
REMARK   72  A    between atoms: _177  and  _178
REMARK   73  A    between atoms: _177  and  _180
REMARK   74  A    between atoms: _180  and  _181
REMARK   75  A    between atoms: _185  and  _186
REMARK   76  A    between atoms: _191  and  _193
REMARK   77  A    between atoms: _193  and  _194
REMARK   78  A    between atoms: _193  and  _196
REMARK   79  A    between atoms: _199  and  _201
REMARK   80  A    between atoms: _201  and  _202
REMARK   81  A    between atoms: _201  and  _204
REMARK   82  A    between atoms: _204  and  _205
REMARK   83  A    between atoms: _210  and  _212
REMARK   84  A    between atoms: _212  and  _213
REMARK   85  A    between atoms: _212  and  _215
REMARK   86  A    between atoms: _215  and  _216
REMARK   87  A    between atoms: _219  and  _221
REMARK   88  A    between atoms: _221  and  _222
REMARK   89  A    between atoms: _221  and  _224
REMARK   90  A    between atoms: _224  and  _225
REMARK   91  A    between atoms: _228  and  _230
REMARK   92  A    between atoms: _230  and  _231
REMARK   93  A    between atoms: _233  and  _235
REMARK   94  A    between atoms: _235  and  _236
REMARK   95  A    between atoms: _235  and  _238
REMARK   96  A    between atoms: _238  and  _239
REMARK   97  A    between atoms: _239  and  _240
REMARK   98  A    between atoms: _240  and  _241
REMARK   99  A    between atoms: _250  and  _252
REMARK  100  A    between atoms: _252  and  _253
REMARK  101  A    between atoms: _252  and  _255
REMARK  102  A    between atoms: _255  and  _256
REMARK  103  A    between atoms: _256  and  _257
REMARK  104  A    between atoms: _257  and  _258
REMARK  105  A    between atoms: _267  and  _269
REMARK  106  A    between atoms: _269  and  _270
REMARK  107  A    between atoms: _269  and  _272
REMARK  108  A    between atoms: _272  and  _273
REMARK  109  A    between atoms: _276  and  _278
REMARK  110  A    between atoms: _278  and  _279
REMARK  111  A    between atoms: _278  and  _281
REMARK  112  A    between atoms: _281  and  _282
REMARK  113  A    between atoms: _285  and  _287
REMARK  114  A    between atoms: _287  and  _288
REMARK  115  A    between atoms: _287  and  _290
REMARK  116  A    between atoms: _290  and  _291
REMARK  117  A    between atoms: _294  and  _296
REMARK  118  A    between atoms: _296  and  _297
REMARK  119  A    between atoms: _296  and  _299
REMARK  120  A    between atoms: _299  and  _300
REMARK  121  A    between atoms: _303  and  _305
REMARK  122  A    between atoms: _305  and  _306
REMARK  123  A    between atoms: _308  and  _310
REMARK  124  A    between atoms: _310  and  _311
REMARK  125  A    between atoms: _314  and  _316
REMARK  126  A    between atoms: _316  and  _317
REMARK  127  A    between atoms: _316  and  _319
REMARK  128  A    between atoms: _319  and  _320
REMARK  129  A    between atoms: _323  and  _325
REMARK  130  A    between atoms: _325  and  _326
REMARK  131  A    between atoms: _325  and  _328
REMARK  132  A    between atoms: _328  and  _329
REMARK  133  A    between atoms: _332  and  _334
REMARK  134  A    between atoms: _334  and  _335
REMARK  135  A    between atoms: _334  and  _337
REMARK  136  A    between atoms: _337  and  _338
REMARK  137  A    between atoms: _341  and  _343
REMARK  138  A    between atoms: _343  and  _344
REMARK  139  A    between atoms: _343  and  _346
REMARK  140  A    between atoms: _349  and  _351
REMARK  141  A    between atoms: _351  and  _352
REMARK  142  A    between atoms: _351  and  _354
REMARK  143  A    between atoms: _354  and  _355
REMARK  144  A    between atoms: _355  and  _356
REMARK  145  A    between atoms: _356  and  _357
REMARK  146  A    between atoms: _357  and  _358
REMARK  147  A    between atoms: _362  and  _364
REMARK  148  A    between atoms: _364  and  _365
REMARK  149  A    between atoms: _364  and  _367
REMARK  150  A    between atoms: _367  and  _368
REMARK  151  A    between atoms: _368  and  _369
REMARK  152  A    between atoms: _371  and  _373
REMARK  153  A    between atoms: _373  and  _374
REMARK  154  A    between atoms: _373  and  _376
REMARK  155  A    between atoms: _376  and  _377
REMARK  156  A    between atoms: _380  and  _382
REMARK  157  A    between atoms: _382  and  _383
REMARK  158  A    between atoms: _385  and  _387
REMARK  159  A    between atoms: _387  and  _388
REMARK  160  A    between atoms: _390  and  _392
REMARK  161  A    between atoms: _392  and  _393
REMARK  162  A    between atoms: _392  and  _395
REMARK  163  A    between atoms: _395  and  _396
REMARK  164  A    between atoms: _399  and  _401
REMARK  165  A    between atoms: _401  and  _402
REMARK  166  A    between atoms: _404  and  _406
REMARK  167  A    between atoms: _406  and  _407
REMARK  168  A    between atoms: _409  and  _411
REMARK  169  A    between atoms: _411  and  _412
REMARK  170  A    between atoms: _411  and  _414
REMARK  171  A    between atoms: _414  and  _415
REMARK  172  A    between atoms: _421  and  _423
REMARK  173  A    between atoms: _423  and  _424
REMARK  174  A    between atoms: _423  and  _426
REMARK  175  A    between atoms: _426  and  _427
REMARK  176  A    between atoms: _431  and  _432
REMARK  177  A    between atoms: _437  and  _439
REMARK  178  A    between atoms: _439  and  _440
REMARK  179  A    between atoms: _439  and  _442
REMARK  180  A    between atoms: _445  and  _447
REMARK  181  A    between atoms: _447  and  _448
REMARK  182  A    between atoms: _447  and  _450
REMARK  183  A    between atoms: _450  and  _451
REMARK  184  A    between atoms: _456  and  _458
REMARK  185  A    between atoms: _458  and  _459
REMARK  186  A    between atoms: _458  and  _461
REMARK  187  A    between atoms: _461  and  _462
REMARK  188  A    between atoms: _465  and  _467
REMARK  189  A    between atoms: _467  and  _468
REMARK  190  A    between atoms: _467  and  _470
REMARK  191  A    between atoms: _470  and  _471
REMARK  192  A    between atoms: _474  and  _476
REMARK  193  A    between atoms: _476  and  _477
REMARK  194  A    between atoms: _479  and  _481
REMARK  195  A    between atoms: _481  and  _482
REMARK  196  A    between atoms: _481  and  _484
REMARK  197  A    between atoms: _484  and  _485
REMARK  198  A    between atoms: _485  and  _486
REMARK  199  A    between atoms: _486  and  _487
REMARK                            x       y       z     vdW  Elec       q    Type
REMARK                         _______ _______ _______ _____ _____    ______ ____
ROOT
ATOM      1  NE  ARG A   1      19.007   8.141  19.461  0.00  0.00    -0.265 N 
ATOM      2  CZ  ARG A   1      18.607   7.393  20.493  0.00  0.00    +0.342 C 
ATOM      3  NH2 ARG A   1      19.514   6.832  21.273  0.00  0.00    -0.292 N 
ATOM      4 HH21 ARG A   1      19.216   6.247  22.080  0.00  0.00    +0.255 HD
ATOM      5 HH22 ARG A   1      20.526   6.975  21.080  0.00  0.00    +0.255 HD
ATOM      6  NH1 ARG A   1      17.315   7.201  20.771  0.00  0.00    -0.292 N 
ATOM      7 HH11 ARG A   1      17.040   6.612  21.583  0.00  0.00    +0.255 HD
ATOM      8 HH12 ARG A   1      16.584   7.640  20.176  0.00  0.00    +0.255 HD
ATOM      9  HE  ARG A   1      20.031   8.250  19.314  0.00  0.00    +0.259 HD
ENDROOT
BRANCH   1  10
ATOM     10  CD  ARG A   1      18.115   8.817  18.524  0.00  0.00    +0.174 C 
BRANCH  10  11
ATOM     11  CG  ARG A   1      18.897   9.538  17.436  0.00  0.00    +0.045 C 
BRANCH  11  12
ATOM     12  CB  ARG A   1      17.969  10.176  16.435  0.00  0.00    +0.029 C 
BRANCH  12  13
ATOM     13  CA  ARG A   1      18.689  10.794  15.241  0.00  0.00    +0.133 C 
BRANCH  13  14
ATOM     14  N   ARG A   1      19.407  11.992  15.633  0.00  0.00    -0.239 NA
ATOM     15  H   ARG A   1      19.399  12.293  16.628  0.00  0.00    +0.142 HD
ENDBRANCH  13  14
BRANCH  13  16
ATOM     16  C   ARG A   1      17.679  11.156  14.149  0.00  0.00    +0.224 C 
ATOM     17  O   ARG A   1      16.924  12.130  14.306  0.00  0.00    -0.287 OA
ENDBRANCH  13  16
ENDBRANCH  12  13
ENDBRANCH  11  12
ENDBRANCH  10  11
ENDBRANCH   1  10
TORSDOF 6
REMARK  Name = ../refined-set-2016/2q54/2q54_pocket.pdb
REMARK  199 active torsions:
REMARK  status: ('A' for Active; 'I' for Inactive)
REMARK    1  A    between atoms: _1  and  _3
REMARK    2  A    between atoms: _3  and  _4
REMARK    3  A    between atoms: _3  and  _6
REMARK    4  A    between atoms: _6  and  _7
REMARK    5  A    between atoms: _7  and  _8
REMARK    6  A    between atoms: _8  and  _9
REMARK    7  A    between atoms: _18  and  _20
REMARK    8  A    between atoms: _20  and  _21
REMARK    9  A    between atoms: _20  and  _23
REMARK   10  A    between atoms: _23  and  _24
REMARK   11  A    between atoms: _27  and  _29
REMARK   12  A    between atoms: _29  and  _30
REMARK   13  A    between atoms: _29  and  _32
REMARK   14  A    between atoms: _32  and  _33
REMARK   15  A    between atoms: _36  and  _38
REMARK   16  A    between atoms: _38  and  _39
REMARK   17  A    between atoms: _38  and  _41
REMARK   18  A    between atoms: _41  and  _42
REMARK   19  A    between atoms: _45  and  _47
REMARK   20  A    between atoms: _47  and  _48
REMARK   21  A    between atoms: _47  and  _50
REMARK   22  A    between atoms: _50  and  _51
REMARK   23  A    between atoms: _54  and  _56
REMARK   24  A    between atoms: _56  and  _57
REMARK   25  A    between atoms: _59  and  _61
REMARK   26  A    between atoms: _61  and  _62
REMARK   27  A    between atoms: _65  and  _67
REMARK   28  A    between atoms: _67  and  _68
REMARK   29  A    between atoms: _67  and  _70
REMARK   30  A    between atoms: _70  and  _71
REMARK   31  A    between atoms: _74  and  _76
REMARK   32  A    between atoms: _76  and  _77
REMARK   33  A    between atoms: _76  and  _79
REMARK   34  A    between atoms: _79  and  _80
REMARK   35  A    between atoms: _83  and  _85
REMARK   36  A    between atoms: _85  and  _86
REMARK   37  A    between atoms: _85  and  _88
REMARK   38  A    between atoms: _88  and  _89
REMARK   39  A    between atoms: _92  and  _94
REMARK   40  A    between atoms: _94  and  _95
REMARK   41  A    between atoms: _94  and  _97
REMARK   42  A    between atoms: _100  and  _102
REMARK   43  A    between atoms: _102  and  _103
REMARK   44  A    between atoms: _102  and  _105
REMARK   45  A    between atoms: _105  and  _106
REMARK   46  A    between atoms: _109  and  _111
REMARK   47  A    between atoms: _111  and  _112
REMARK   48  A    between atoms: _114  and  _116
REMARK   49  A    between atoms: _116  and  _117
REMARK   50  A    between atoms: _119  and  _121
REMARK   51  A    between atoms: _121  and  _122
REMARK   52  A    between atoms: _121  and  _124
REMARK   53  A    between atoms: _124  and  _125
REMARK   54  A    between atoms: _128  and  _130
REMARK   55  A    between atoms: _130  and  _131
REMARK   56  A    between atoms: _133  and  _135
REMARK   57  A    between atoms: _135  and  _136
REMARK   58  A    between atoms: _138  and  _140
REMARK   59  A    between atoms: _140  and  _141
REMARK   60  A    between atoms: _140  and  _143
REMARK   61  A    between atoms: _143  and  _144
REMARK   62  A    between atoms: _150  and  _152
REMARK   63  A    between atoms: _152  and  _153
REMARK   64  A    between atoms: _152  and  _155
REMARK   65  A    between atoms: _155  and  _156
REMARK   66  A    between atoms: _159  and  _161
REMARK   67  A    between atoms: _161  and  _162
REMARK   68  A    between atoms: _161  and  _164
REMARK   69  A    between atoms: _164  and  _165
REMARK   70  A    between atoms: _169  and  _170
REMARK   71  A    between atoms: _175  and  _177
REMARK   72  A    between atoms: _177  and  _178
REMARK   73  A    between atoms: _177  and  _180
REMARK   74  A    between atoms: _180  and  _181
REMARK   75  A    between atoms: _185  and  _186
REMARK   76  A    between atoms: _191  and  _193
REMARK   77  A    between atoms: _193  and  _194
REMARK   78  A    between atoms: _193  and  _196
REMARK   79  A    between atoms: _199  and  _201
REMARK   80  A    between atoms: _201  and  _202
REMARK   81  A    between atoms: _201  and  _204
REMARK   82  A    between atoms: _204  and  _205
REMARK   83  A    between atoms: _210  and  _212
REMARK   84  A    between atoms: _212  and  _213
REMARK   85  A    between atoms: _212  and  _215
REMARK   86  A    between atoms: _215  and  _216
REMARK   87  A    between atoms: _219  and  _221
REMARK   88  A    between atoms: _221  and  _222
REMARK   89  A    between atoms: _221  and  _224
REMARK   90  A    between atoms: _224  and  _225
REMARK   91  A    between atoms: _228  and  _230
REMARK   92  A    between atoms: _230  and  _231
REMARK   93  A    between atoms: _233  and  _235
REMARK   94  A    between atoms: _235  and  _236
REMARK   95  A    between atoms: _235  and  _238
REMARK   96  A    between atoms: _238  and  _239
REMARK   97  A    between atoms: _239  and  _240
REMARK   98  A    between atoms: _240  and  _241
REMARK   99  A    between atoms: _250  and  _252
REMARK  100  A    between atoms: _252  and  _253
REMARK  101  A    between atoms: _252  and  _255
REMARK  102  A    between atoms: _255  and  _256
REMARK  103  A    between atoms: _256  and  _257
REMARK  104  A    between atoms: _257  and  _258
REMARK  105  A    between atoms: _267  and  _269
REMARK  106  A    between atoms: _269  and  _270
REMARK  107  A    between atoms: _269  and  _272
REMARK  108  A    between atoms: _272  and  _273
REMARK  109  A    between atoms: _276  and  _278
REMARK  110  A    between atoms: _278  and  _279
REMARK  111  A    between atoms: _278  and  _281
REMARK  112  A    between atoms: _281  and  _282
REMARK  113  A    between atoms: _285  and  _287
REMARK  114  A    between atoms: _287  and  _288
REMARK  115  A    between atoms: _287  and  _290
REMARK  116  A    between atoms: _290  and  _291
REMARK  117  A    between atoms: _294  and  _296
REMARK  118  A    between atoms: _296  and  _297
REMARK  119  A    between atoms: _296  and  _299
REMARK  120  A    between atoms: _299  and  _300
REMARK  121  A    between atoms: _303  and  _305
REMARK  122  A    between atoms: _305  and  _306
REMARK  123  A    between atoms: _308  and  _310
REMARK  124  A    between atoms: _310  and  _311
REMARK  125  A    between atoms: _314  and  _316
REMARK  126  A    between atoms: _316  and  _317
REMARK  127  A    between atoms: _316  and  _319
REMARK  128  A    between atoms: _319  and  _320
REMARK  129  A    between atoms: _323  and  _325
REMARK  130  A    between atoms: _325  and  _326
REMARK  131  A    between atoms: _325  and  _328
REMARK  132  A    between atoms: _328  and  _329
REMARK  133  A    between atoms: _332  and  _334
REMARK  134  A    between atoms: _334  and  _335
REMARK  135  A    between atoms: _334  and  _337
REMARK  136  A    between atoms: _337  and  _338
REMARK  137  A    between atoms: _341  and  _343
REMARK  138  A    between atoms: _343  and  _344
REMARK  139  A    between atoms: _343  and  _346
REMARK  140  A    between atoms: _349  and  _351
REMARK  141  A    between atoms: _351  and  _352
REMARK  142  A    between atoms: _351  and  _354
REMARK  143  A    between atoms: _354  and  _355
REMARK  144  A    between atoms: _355  and  _356
REMARK  145  A    between atoms: _356  and  _357
REMARK  146  A    between atoms: _357  and  _358
REMARK  147  A    between atoms: _362  and  _364
REMARK  148  A    between atoms: _364  and  _365
REMARK  149  A    between atoms: _364  and  _367
REMARK  150  A    between atoms: _367  and  _368
REMARK  151  A    between atoms: _368  and  _369
REMARK  152  A    between atoms: _371  and  _373
REMARK  153  A    between atoms: _373  and  _374
REMARK  154  A    between atoms: _373  and  _376
REMARK  155  A    between atoms: _376  and  _377
REMARK  156  A    between atoms: _380  and  _382
REMARK  157  A    between atoms: _382  and  _383
REMARK  158  A    between atoms: _385  and  _387
REMARK  159  A    between atoms: _387  and  _388
REMARK  160  A    between atoms: _390  and  _392
REMARK  161  A    between atoms: _392  and  _393
REMARK  162  A    between atoms: _392  and  _395
REMARK  163  A    between atoms: _395  and  _396
REMARK  164  A    between atoms: _399  and  _401
REMARK  165  A    between atoms: _401  and  _402
REMARK  166  A    between atoms: _404  and  _406
REMARK  167  A    between atoms: _406  and  _407
REMARK  168  A    between atoms: _409  and  _411
REMARK  169  A    between atoms: _411  and  _412
REMARK  170  A    between atoms: _411  and  _414
REMARK  171  A    between atoms: _414  and  _415
REMARK  172  A    between atoms: _421  and  _423
REMARK  173  A    between atoms: _423  and  _424
REMARK  174  A    between atoms: _423  and  _426
REMARK  175  A    between atoms: _426  and  _427
REMARK  176  A    between atoms: _431  and  _432
REMARK  177  A    between atoms: _437  and  _439
REMARK  178  A    between atoms: _439  and  _440
REMARK  179  A    between atoms: _439  and  _442
REMARK  180  A    between atoms: _445  and  _447
REMARK  181  A    between atoms: _447  and  _448
REMARK  182  A    between atoms: _447  and  _450
REMARK  183  A    between atoms: _450  and  _451
REMARK  184  A    between atoms: _456  and  _458
REMARK  185  A    between atoms: _458  and  _459
REMARK  186  A    between atoms: _458  and  _461
REMARK  187  A    between atoms: _461  and  _462
REMARK  188  A    between atoms: _465  and  _467
REMARK  189  A    between atoms: _467  and  _468
REMARK  190  A    between atoms: _467  and  _470
REMARK  191  A    between atoms: _470  and  _471
REMARK  192  A    between atoms: _474  and  _476
REMARK  193  A    between atoms: _476  and  _477
REMARK  194  A    between atoms: _479  and  _481
REMARK  195  A    between atoms: _481  and  _482
REMARK  196  A    between atoms: _481  and  _484
REMARK  197  A    between atoms: _484  and  _485
REMARK  198  A    between atoms: _485  and  _486
REMARK  199  A    between atoms: _486  and  _487
REMARK                            x       y       z     vdW  Elec       q    Type
REMARK                         _______ _______ _______ _____ _____    ______ ____
ROOT
ATOM      1  C   GLY A   5      19.713  -1.813  10.488  0.00  0.00    +0.243 C 
ATOM      2  O   GLY A   5      20.087  -2.769  11.168  0.00  0.00    -0.273 OA
ATOM      3  N   ALA A   6      18.433  -1.605  10.176  0.00  0.00    -0.297 N 
ATOM      4  H   ALA A   6      18.175  -0.753   9.639  0.00  0.00    +0.150 HD
ENDROOT
BRANCH   3   5
ATOM      5  CA  ALA A   6      17.382  -2.544  10.569  0.00  0.00    +0.149 C 
ATOM      6  CB  ALA A   6      16.297  -1.827  11.363  0.00  0.00    +0.031 C 
BRANCH   5   7
ATOM      7  C   ALA A   6      16.778  -3.242   9.349  0.00  0.00    +0.241 C 
ATOM      8  N   ASP A   7      16.797  -4.577   9.357  0.00  0.00    -0.297 N 
ATOM      9  H   ASP A   7      17.254  -5.080  10.145  0.00  0.00    +0.150 HD
ATOM     10  O   ALA A   6      16.284  -2.584   8.420  0.00  0.00    -0.273 OA
BRANCH   8  11
ATOM     11  CA  ASP A   7      16.181  -5.344   8.267  0.00  0.00    +0.160 C 
BRANCH  11  12
ATOM     12  C   ASP A   7      14.681  -5.109   8.283  0.00  0.00    +0.241 C 
ATOM     13  N   ASP A   8      14.143  -5.039   9.503  0.00  0.00    -0.297 N 
ATOM     14  H   ASP A   8      14.785  -4.954  10.317  0.00  0.00    +0.150 HD
ATOM     15  O   ASP A   7      14.038  -5.018   7.229  0.00  0.00    -0.273 OA
BRANCH  13  16
ATOM     16  CA  ASP A   8      12.722  -5.075   9.759  0.00  0.00    +0.160 C 
BRANCH  16  17
ATOM     17  C   ASP A   8      12.265  -3.833  10.508  0.00  0.00    +0.241 C 
ATOM     18  O   ASP A   8      13.044  -3.172  11.199  0.00  0.00    -0.273 OA
ATOM     19  N   THR A   9      10.985  -3.529  10.360  0.00  0.00    -0.295 N 
ATOM     20  H   THR A   9      10.412  -4.100   9.706  0.00  0.00    +0.150 HD
BRANCH  19  21
ATOM     21  CA  THR A   9      10.345  -2.437  11.067  0.00  0.00    +0.176 C 
BRANCH  21  22
ATOM     22  C   THR A   9       9.830  -2.965  12.415  0.00  0.00    +0.243 C 
ATOM     23  N   VAL A  10      10.209  -2.277  13.489  0.00  0.00    -0.298 N 
ATOM     24  H   VAL A  10      10.763  -1.408  13.352  0.00  0.00    +0.150 HD
ATOM     25  O   THR A   9       9.146  -4.003  12.475  0.00  0.00    -0.273 OA
BRANCH  23  26
ATOM     26  CA  VAL A  10       9.882  -2.688  14.850  0.00  0.00    +0.137 C 
BRANCH  26  27
ATOM     27  CB  VAL A  10      11.113  -3.227  15.627  0.00  0.00    +0.026 C 
ATOM     28  CG2 VAL A  10      10.654  -4.007  16.872  0.00  0.00    +0.002 C 
ATOM     29  CG1 VAL A  10      12.013  -4.094  14.724  0.00  0.00    +0.002 C 
ENDBRANCH  26  27
BRANCH  26  30
ATOM     30  C   VAL A  10       9.285  -1.497  15.605  0.00  0.00    +0.227 C 
ATOM     31  O   VAL A  10       9.929  -0.456  15.775  0.00  0.00    -0.286 OA
ENDBRANCH  26  30
ENDBRANCH  23  26
ENDBRANCH  21  22
BRANCH  21  32
ATOM     32  CB  THR A   9       9.232  -1.836  10.185  0.00  0.00    +0.137 C 
ATOM     33  CG2 THR A   9       8.363  -0.839  10.941  0.00  0.00    +0.034 C 
BRANCH  32  34
ATOM     34  OG1 THR A   9       9.850  -1.181   9.074  0.00  0.00    -0.382 OA
ATOM     35  HG1 THR A   9      10.378  -1.839   8.556  0.00  0.00    +0.210 HD
ENDBRANCH  32  34
ENDBRANCH  21  32
ENDBRANCH  19  21
ENDBRANCH  16  17
BRANCH  16  36
ATOM     36  CB  ASP A   8      12.372  -6.322  10.582  0.00  0.00    +0.143 C 
BRANCH  36  37
ATOM     37  CG  ASP A   8      12.867  -7.614   9.940  0.00  0.00    +0.367 C 
ATOM     38  OD2 ASP A   8      13.562  -8.393  10.635  0.00  0.00    -0.246 OA
ATOM     39  OD1 ASP A   8      12.553  -7.863   8.748  0.00  0.00    -0.246 OA
ENDBRANCH  36  37
ENDBRANCH  16  36
ENDBRANCH  13  16
ENDBRANCH  11  12
BRANCH  11  40
ATOM     40  CB  ASP A   7      16.368  -6.854   8.449  0.00  0.00    +0.143 C 
BRANCH  40  41
ATOM     41  CG  ASP A   7      17.807  -7.297   8.418  0.00  0.00    +0.367 C 
ATOM     42  OD2 ASP A   7      18.041  -8.477   8.766  0.00  0.00    -0.246 OA
ATOM     43  OD1 ASP A   7      18.692  -6.508   8.040  0.00  0.00    -0.246 OA
ENDBRANCH  40  41
ENDBRANCH  11  40
ENDBRANCH   8  11
ENDBRANCH   5   7
ENDBRANCH   3   5
BRANCH   1  44
ATOM     44  CA  GLY A   5      20.738  -0.818   9.957  0.00  0.00    +0.176 C 
BRANCH  44  46
ATOM     45  C   THR A   4      19.904   0.361   7.982  0.00  0.00    +0.243 C 
ATOM     46  N   GLY A   5      20.160   0.347   9.295  0.00  0.00    -0.295 N 
ATOM     47  H   GLY A   5      19.941   1.192   9.861  0.00  0.00    +0.150 HD
ATOM     48  O   THR A   4      20.175  -0.585   7.236  0.00  0.00    -0.273 OA
BRANCH  45  49
ATOM     49  CA  THR A   4      19.243   1.622   7.423  0.00  0.00    +0.176 C 
BRANCH  49  52
ATOM     50  C   ASP A   3      17.552   2.013   9.142  0.00  0.00    +0.241 C 
ATOM     51  O   ASP A   3      17.035   0.897   8.974  0.00  0.00    -0.273 OA
ATOM     52  N   THR A   4      18.609   2.438   8.454  0.00  0.00    -0.295 N 
ATOM     53  H   THR A   4      18.996   3.382   8.657  0.00  0.00    +0.150 HD
BRANCH  50  54
ATOM     54  CA  ASP A   3      17.042   2.979  10.225  0.00  0.00    +0.160 C 
BRANCH  54  57
ATOM     55  C   LEU A   2      15.977   5.136   9.827  0.00  0.00    +0.241 C 
ATOM     56  O   LEU A   2      17.025   5.770   9.974  0.00  0.00    -0.273 OA
ATOM     57  N   ASP A   3      15.923   3.804   9.793  0.00  0.00    -0.297 N 
ATOM     58  H   ASP A   3      15.057   3.342   9.448  0.00  0.00    +0.150 HD
BRANCH  55  59
ATOM     59  CA  LEU A   2      14.653   5.873   9.687  0.00  0.00    +0.149 C 
BRANCH  59  62
ATOM     60  C   LEU A   1      13.861   5.653  11.969  0.00  0.00    +0.238 C 
ATOM     61  O   LEU A   1      13.464   4.505  11.781  0.00  0.00    -0.274 OA
ATOM     62  N   LEU A   2      14.351   6.425  11.001  0.00  0.00    -0.297 N 
ATOM     63  H   LEU A   2      14.520   7.434  11.185  0.00  0.00    +0.150 HD
BRANCH  60  64
ATOM     64  CA  LEU A   1      13.852   6.227  13.367  0.00  0.00    +0.145 C 
BRANCH  64  65
ATOM     65  N   LEU A   1      12.524   6.119  13.950  0.00  0.00    -0.238 NA
ATOM     66  H   LEU A   1      12.346   5.344  14.620  0.00  0.00    +0.142 HD
ENDBRANCH  64  65
BRANCH  64  67
ATOM     67  CB  LEU A   1      14.865   5.396  14.171  0.00  0.00    +0.026 C 
BRANCH  67  68
ATOM     68  CG  LEU A   1      15.708   5.982  15.278  0.00  0.00    +0.002 C 
ATOM     69  CD2 LEU A   1      16.630   4.887  15.800  0.00  0.00    +0.000 C 
ATOM     70  CD1 LEU A   1      16.504   7.171  14.792  0.00  0.00    +0.000 C 
ENDBRANCH  67  68
ENDBRANCH  64  67
ENDBRANCH  60  64
ENDBRANCH  59  62
BRANCH  59  71
ATOM     71  CB  LEU A   2      14.766   6.966   8.635  0.00  0.00    +0.029 C 
BRANCH  71  72
ATOM     72  CG  LEU A   2      13.531   7.851   8.449  0.00  0.00    +0.002 C 
ATOM     73  CD2 LEU A   2      12.334   7.048   7.968  0.00  0.00    +0.000 C 
ATOM     74  CD1 LEU A   2      13.855   8.971   7.496  0.00  0.00    +0.000 C 
ENDBRANCH  71  72
ENDBRANCH  59  71
ENDBRANCH  55  59
ENDBRANCH  54  57
BRANCH  54  75
ATOM     75  CB  ASP A   3      16.631   2.208  11.471  0.00  0.00    +0.143 C 
BRANCH  75  76
ATOM     76  CG  ASP A   3      17.786   1.453  12.103  0.00  0.00    +0.367 C 
ATOM     77  OD2 ASP A   3      17.529   0.773  13.107  0.00  0.00    -0.246 OA
ATOM     78  OD1 ASP A   3      18.937   1.553  11.615  0.00  0.00    -0.246 OA
ENDBRANCH  75  76
ENDBRANCH  54  75
ENDBRANCH  50  54
ENDBRANCH  49  52
BRANCH  49  79
ATOM     79  CB  THR A   4      20.289   2.428   6.663  0.00  0.00    +0.137 C 
ATOM     80  CG2 THR A   4      19.625   3.587   5.922  0.00  0.00    +0.034 C 
BRANCH  79  81
ATOM     81  OG1 THR A   4      21.284   2.927   7.576  0.00  0.00    -0.382 OA
ATOM     82  HG1 THR A   4      21.725   2.166   8.030  0.00  0.00    +0.210 HD
ENDBRANCH  79  81
ENDBRANCH  49  79
ENDBRANCH  45  49
ENDBRANCH  44  46
ENDBRANCH   1  44
TORSDOF 35
REMARK  Name = ../refined-set-2016/2q54/2q54_pocket.pdb
REMARK  199 active torsions:
REMARK  status: ('A' for Active; 'I' for Inactive)
REMARK    1  A    between atoms: _1  and  _3
REMARK    2  A    between atoms: _3  and  _4
REMARK    3  A    between atoms: _3  and  _6
REMARK    4  A    between atoms: _6  and  _7
REMARK    5  A    between atoms: _7  and  _8
REMARK    6  A    between atoms: _8  and  _9
REMARK    7  A    between atoms: _18  and  _20
REMARK    8  A    between atoms: _20  and  _21
REMARK    9  A    between atoms: _20  and  _23
REMARK   10  A    between atoms: _23  and  _24
REMARK   11  A    between atoms: _27  and  _29
REMARK   12  A    between atoms: _29  and  _30
REMARK   13  A    between atoms: _29  and  _32
REMARK   14  A    between atoms: _32  and  _33
REMARK   15  A    between atoms: _36  and  _38
REMARK   16  A    between atoms: _38  and  _39
REMARK   17  A    between atoms: _38  and  _41
REMARK   18  A    between atoms: _41  and  _42
REMARK   19  A    between atoms: _45  and  _47
REMARK   20  A    between atoms: _47  and  _48
REMARK   21  A    between atoms: _47  and  _50
REMARK   22  A    between atoms: _50  and  _51
REMARK   23  A    between atoms: _54  and  _56
REMARK   24  A    between atoms: _56  and  _57
REMARK   25  A    between atoms: _59  and  _61
REMARK   26  A    between atoms: _61  and  _62
REMARK   27  A    between atoms: _65  and  _67
REMARK   28  A    between atoms: _67  and  _68
REMARK   29  A    between atoms: _67  and  _70
REMARK   30  A    between atoms: _70  and  _71
REMARK   31  A    between atoms: _74  and  _76
REMARK   32  A    between atoms: _76  and  _77
REMARK   33  A    between atoms: _76  and  _79
REMARK   34  A    between atoms: _79  and  _80
REMARK   35  A    between atoms: _83  and  _85
REMARK   36  A    between atoms: _85  and  _86
REMARK   37  A    between atoms: _85  and  _88
REMARK   38  A    between atoms: _88  and  _89
REMARK   39  A    between atoms: _92  and  _94
REMARK   40  A    between atoms: _94  and  _95
REMARK   41  A    between atoms: _94  and  _97
REMARK   42  A    between atoms: _100  and  _102
REMARK   43  A    between atoms: _102  and  _103
REMARK   44  A    between atoms: _102  and  _105
REMARK   45  A    between atoms: _105  and  _106
REMARK   46  A    between atoms: _109  and  _111
REMARK   47  A    between atoms: _111  and  _112
REMARK   48  A    between atoms: _114  and  _116
REMARK   49  A    between atoms: _116  and  _117
REMARK   50  A    between atoms: _119  and  _121
REMARK   51  A    between atoms: _121  and  _122
REMARK   52  A    between atoms: _121  and  _124
REMARK   53  A    between atoms: _124  and  _125
REMARK   54  A    between atoms: _128  and  _130
REMARK   55  A    between atoms: _130  and  _131
REMARK   56  A    between atoms: _133  and  _135
REMARK   57  A    between atoms: _135  and  _136
REMARK   58  A    between atoms: _138  and  _140
REMARK   59  A    between atoms: _140  and  _141
REMARK   60  A    between atoms: _140  and  _143
REMARK   61  A    between atoms: _143  and  _144
REMARK   62  A    between atoms: _150  and  _152
REMARK   63  A    between atoms: _152  and  _153
REMARK   64  A    between atoms: _152  and  _155
REMARK   65  A    between atoms: _155  and  _156
REMARK   66  A    between atoms: _159  and  _161
REMARK   67  A    between atoms: _161  and  _162
REMARK   68  A    between atoms: _161  and  _164
REMARK   69  A    between atoms: _164  and  _165
REMARK   70  A    between atoms: _169  and  _170
REMARK   71  A    between atoms: _175  and  _177
REMARK   72  A    between atoms: _177  and  _178
REMARK   73  A    between atoms: _177  and  _180
REMARK   74  A    between atoms: _180  and  _181
REMARK   75  A    between atoms: _185  and  _186
REMARK   76  A    between atoms: _191  and  _193
REMARK   77  A    between atoms: _193  and  _194
REMARK   78  A    between atoms: _193  and  _196
REMARK   79  A    between atoms: _199  and  _201
REMARK   80  A    between atoms: _201  and  _202
REMARK   81  A    between atoms: _201  and  _204
REMARK   82  A    between atoms: _204  and  _205
REMARK   83  A    between atoms: _210  and  _212
REMARK   84  A    between atoms: _212  and  _213
REMARK   85  A    between atoms: _212  and  _215
REMARK   86  A    between atoms: _215  and  _216
REMARK   87  A    between atoms: _219  and  _221
REMARK   88  A    between atoms: _221  and  _222
REMARK   89  A    between atoms: _221  and  _224
REMARK   90  A    between atoms: _224  and  _225
REMARK   91  A    between atoms: _228  and  _230
REMARK   92  A    between atoms: _230  and  _231
REMARK   93  A    between atoms: _233  and  _235
REMARK   94  A    between atoms: _235  and  _236
REMARK   95  A    between atoms: _235  and  _238
REMARK   96  A    between atoms: _238  and  _239
REMARK   97  A    between atoms: _239  and  _240
REMARK   98  A    between atoms: _240  and  _241
REMARK   99  A    between atoms: _250  and  _252
REMARK  100  A    between atoms: _252  and  _253
REMARK  101  A    between atoms: _252  and  _255
REMARK  102  A    between atoms: _255  and  _256
REMARK  103  A    between atoms: _256  and  _257
REMARK  104  A    between atoms: _257  and  _258
REMARK  105  A    between atoms: _267  and  _269
REMARK  106  A    between atoms: _269  and  _270
REMARK  107  A    between atoms: _269  and  _272
REMARK  108  A    between atoms: _272  and  _273
REMARK  109  A    between atoms: _276  and  _278
REMARK  110  A    between atoms: _278  and  _279
REMARK  111  A    between atoms: _278  and  _281
REMARK  112  A    between atoms: _281  and  _282
REMARK  113  A    between atoms: _285  and  _287
REMARK  114  A    between atoms: _287  and  _288
REMARK  115  A    between atoms: _287  and  _290
REMARK  116  A    between atoms: _290  and  _291
REMARK  117  A    between atoms: _294  and  _296
REMARK  118  A    between atoms: _296  and  _297
REMARK  119  A    between atoms: _296  and  _299
REMARK  120  A    between atoms: _299  and  _300
REMARK  121  A    between atoms: _303  and  _305
REMARK  122  A    between atoms: _305  and  _306
REMARK  123  A    between atoms: _308  and  _310
REMARK  124  A    between atoms: _310  and  _311
REMARK  125  A    between atoms: _314  and  _316
REMARK  126  A    between atoms: _316  and  _317
REMARK  127  A    between atoms: _316  and  _319
REMARK  128  A    between atoms: _319  and  _320
REMARK  129  A    between atoms: _323  and  _325
REMARK  130  A    between atoms: _325  and  _326
REMARK  131  A    between atoms: _325  and  _328
REMARK  132  A    between atoms: _328  and  _329
REMARK  133  A    between atoms: _332  and  _334
REMARK  134  A    between atoms: _334  and  _335
REMARK  135  A    between atoms: _334  and  _337
REMARK  136  A    between atoms: _337  and  _338
REMARK  137  A    between atoms: _341  and  _343
REMARK  138  A    between atoms: _343  and  _344
REMARK  139  A    between atoms: _343  and  _346
REMARK  140  A    between atoms: _349  and  _351
REMARK  141  A    between atoms: _351  and  _352
REMARK  142  A    between atoms: _351  and  _354
REMARK  143  A    between atoms: _354  and  _355
REMARK  144  A    between atoms: _355  and  _356
REMARK  145  A    between atoms: _356  and  _357
REMARK  146  A    between atoms: _357  and  _358
REMARK  147  A    between atoms: _362  and  _364
REMARK  148  A    between atoms: _364  and  _365
REMARK  149  A    between atoms: _364  and  _367
REMARK  150  A    between atoms: _367  and  _368
REMARK  151  A    between atoms: _368  and  _369
REMARK  152  A    between atoms: _371  and  _373
REMARK  153  A    between atoms: _373  and  _374
REMARK  154  A    between atoms: _373  and  _376
REMARK  155  A    between atoms: _376  and  _377
REMARK  156  A    between atoms: _380  and  _382
REMARK  157  A    between atoms: _382  and  _383
REMARK  158  A    between atoms: _385  and  _387
REMARK  159  A    between atoms: _387  and  _388
REMARK  160  A    between atoms: _390  and  _392
REMARK  161  A    between atoms: _392  and  _393
REMARK  162  A    between atoms: _392  and  _395
REMARK  163  A    between atoms: _395  and  _396
REMARK  164  A    between atoms: _399  and  _401
REMARK  165  A    between atoms: _401  and  _402
REMARK  166  A    between atoms: _404  and  _406
REMARK  167  A    between atoms: _406  and  _407
REMARK  168  A    between atoms: _409  and  _411
REMARK  169  A    between atoms: _411  and  _412
REMARK  170  A    between atoms: _411  and  _414
REMARK  171  A    between atoms: _414  and  _415
REMARK  172  A    between atoms: _421  and  _423
REMARK  173  A    between atoms: _423  and  _424
REMARK  174  A    between atoms: _423  and  _426
REMARK  175  A    between atoms: _426  and  _427
REMARK  176  A    between atoms: _431  and  _432
REMARK  177  A    between atoms: _437  and  _439
REMARK  178  A    between atoms: _439  and  _440
REMARK  179  A    between atoms: _439  and  _442
REMARK  180  A    between atoms: _445  and  _447
REMARK  181  A    between atoms: _447  and  _448
REMARK  182  A    between atoms: _447  and  _450
REMARK  183  A    between atoms: _450  and  _451
REMARK  184  A    between atoms: _456  and  _458
REMARK  185  A    between atoms: _458  and  _459
REMARK  186  A    between atoms: _458  and  _461
REMARK  187  A    between atoms: _461  and  _462
REMARK  188  A    between atoms: _465  and  _467
REMARK  189  A    between atoms: _467  and  _468
REMARK  190  A    between atoms: _467  and  _470
REMARK  191  A    between atoms: _470  and  _471
REMARK  192  A    between atoms: _474  and  _476
REMARK  193  A    between atoms: _476  and  _477
REMARK  194  A    between atoms: _479  and  _481
REMARK  195  A    between atoms: _481  and  _482
REMARK  196  A    between atoms: _481  and  _484
REMARK  197  A    between atoms: _484  and  _485
REMARK  198  A    between atoms: _485  and  _486
REMARK  199  A    between atoms: _486  and  _487
REMARK                            x       y       z     vdW  Elec       q    Type
REMARK                         _______ _______ _______ _____ _____    ______ ____
ROOT
ATOM      1  C   GLY A   4      18.641  -8.631  17.649  0.00  0.00    +0.243 C 
ATOM      2  N   GLY A   5      19.405  -8.046  18.553  0.00  0.00    -0.295 N 
ATOM      3  H   GLY A   5      19.398  -8.408  19.528  0.00  0.00    +0.150 HD
ATOM      4  O   GLY A   4      18.440  -8.172  16.535  0.00  0.00    -0.273 OA
ENDROOT
BRANCH   2   5
ATOM      5  CA  GLY A   5      20.257  -6.911  18.230  0.00  0.00    +0.176 C 
BRANCH   5   6
ATOM      6  C   GLY A   5      21.339  -6.780  19.281  0.00  0.00    +0.243 C 
ATOM      7  O   GLY A   5      21.712  -7.759  19.913  0.00  0.00    -0.273 OA
ATOM      8  N   ILE A   6      21.849  -5.574  19.483  0.00  0.00    -0.297 N 
ATOM      9  H   ILE A   6      21.567  -4.777  18.878  0.00  0.00    +0.150 HD
BRANCH   8  10
ATOM     10  CA  ILE A   6      22.805  -5.377  20.558  0.00  0.00    +0.149 C 
BRANCH  10  11
ATOM     11  C   ILE A   6      22.069  -5.630  21.881  0.00  0.00    +0.241 C 
ATOM     12  N   GLY A   7      22.682  -6.433  22.742  0.00  0.00    -0.295 N 
ATOM     13  H   GLY A   7      23.601  -6.846  22.484  0.00  0.00    +0.150 HD
ATOM     14  O   ILE A   6      20.952  -5.145  22.089  0.00  0.00    -0.273 OA
BRANCH  12  15
ATOM     15  CA  GLY A   7      22.103  -6.750  24.035  0.00  0.00    +0.176 C 
BRANCH  15  16
ATOM     16  C   GLY A   7      21.401  -8.091  24.098  0.00  0.00    +0.243 C 
ATOM     17  O   GLY A   7      21.288  -8.658  25.176  0.00  0.00    -0.273 OA
ATOM     18  N   GLY A   8      20.924  -8.602  22.964  0.00  0.00    -0.295 N 
ATOM     19  H   GLY A   8      21.044  -8.074  22.076  0.00  0.00    +0.150 HD
BRANCH  18  20
ATOM     20  CA  GLY A   8      20.235  -9.891  22.943  0.00  0.00    +0.176 C 
BRANCH  20  21
ATOM     21  C   GLY A   8      18.957  -9.826  22.141  0.00  0.00    +0.243 C 
ATOM     22  N   PHE A   9      18.011 -10.694  22.486  0.00  0.00    -0.298 N 
ATOM     23  H   PHE A   9      18.150 -11.282  23.333  0.00  0.00    +0.150 HD
ATOM     24  O   GLY A   8      18.831  -8.998  21.225  0.00  0.00    -0.273 OA
BRANCH  22  25
ATOM     25  CA  PHE A   9      16.788 -10.846  21.714  0.00  0.00    +0.141 C 
BRANCH  25  26
ATOM     26  C   PHE A   9      15.581 -10.342  22.493  0.00  0.00    +0.227 C 
ATOM     27  O   PHE A   9      15.571 -10.348  23.735  0.00  0.00    -0.286 OA
ENDBRANCH  25  26
BRANCH  25  28
ATOM     28  CB  PHE A   9      16.564 -12.319  21.324  0.00  0.00    +0.054 C 
BRANCH  28  29
ATOM     29  CG  PHE A   9      17.411 -12.786  20.170  0.00  0.00    -0.020 A 
ATOM     30  CD2 PHE A   9      18.764 -13.068  20.351  0.00  0.00    -0.004 A 
ATOM     31  CE2 PHE A   9      19.548 -13.493  19.308  0.00  0.00    -0.000 A 
ATOM     32  CZ  PHE A   9      18.994 -13.668  18.045  0.00  0.00    -0.000 A 
ATOM     33  CE1 PHE A   9      17.652 -13.403  17.843  0.00  0.00    -0.000 A 
ATOM     34  CD1 PHE A   9      16.862 -12.963  18.906  0.00  0.00    -0.004 A 
ENDBRANCH  28  29
ENDBRANCH  25  28
ENDBRANCH  22  25
ENDBRANCH  20  21
ENDBRANCH  18  20
ENDBRANCH  15  16
ENDBRANCH  12  15
ENDBRANCH  10  11
BRANCH  10  35
ATOM     35  CB  ILE A   6      23.465  -3.990  20.493  0.00  0.00    +0.027 C 
ATOM     36  CG2 ILE A   6      24.010  -3.576  21.861  0.00  0.00    +0.002 C 
BRANCH  35  37
ATOM     37  CG1 ILE A   6      24.599  -4.040  19.451  0.00  0.00    +0.002 C 
ATOM     38  CD1 ILE A   6      25.308  -2.765  19.250  0.00  0.00    +0.000 C 
ENDBRANCH  35  37
ENDBRANCH  10  35
ENDBRANCH   8  10
ENDBRANCH   5   6
ENDBRANCH   2   5
BRANCH   1  39
ATOM     39  CA  GLY A   4      18.011  -9.927  18.068  0.00  0.00    +0.176 C 
BRANCH  39  42
ATOM     40  C   ILE A   3      15.624 -10.125  17.841  0.00  0.00    +0.241 C 
ATOM     41  O   ILE A   3      15.432  -9.801  19.022  0.00  0.00    -0.273 OA
ATOM     42  N   GLY A   4      16.822 -10.153  17.283  0.00  0.00    -0.295 N 
ATOM     43  H   GLY A   4      16.909 -10.341  16.264  0.00  0.00    +0.150 HD
BRANCH  40  44
ATOM     44  CA  ILE A   3      14.481 -10.555  16.933  0.00  0.00    +0.149 C 
BRANCH  44  46
ATOM     45  C   MET A   2      13.248 -12.616  17.394  0.00  0.00    +0.241 C 
ATOM     46  N   ILE A   3      13.531 -11.352  17.696  0.00  0.00    -0.297 N 
ATOM     47  H   ILE A   3      13.054 -10.915  18.510  0.00  0.00    +0.150 HD
ATOM     48  O   MET A   2      13.777 -13.234  16.463  0.00  0.00    -0.273 OA
BRANCH  45  49
ATOM     49  CA  MET A   2      12.201 -13.281  18.280  0.00  0.00    +0.149 C 
BRANCH  49  52
ATOM     50  C   LYS A   1       9.899 -13.503  17.577  0.00  0.00    +0.238 C 
ATOM     51  O   LYS A   1       9.516 -12.739  18.464  0.00  0.00    -0.274 OA
ATOM     52  N   MET A   2      11.166 -13.875  17.449  0.00  0.00    -0.297 N 
ATOM     53  H   MET A   2      11.422 -14.599  16.747  0.00  0.00    +0.150 HD
BRANCH  50  54
ATOM     54  CA  LYS A   1       8.916 -14.053  16.565  0.00  0.00    +0.145 C 
BRANCH  54  55
ATOM     55  N   LYS A   1       7.606 -14.069  17.169  0.00  0.00    -0.238 NA
ATOM     56  H   LYS A   1       7.402 -13.408  17.946  0.00  0.00    +0.142 HD
ENDBRANCH  54  55
BRANCH  54  57
ATOM     57  CB  LYS A   1       8.877 -13.134  15.352  0.00  0.00    +0.026 C 
BRANCH  57  58
ATOM     58  CG  LYS A   1      10.018 -13.305  14.386  0.00  0.00    -0.000 C 
BRANCH  58  59
ATOM     59  CD  LYS A   1       9.693 -12.598  13.075  0.00  0.00    -0.024 C 
BRANCH  59  60
ATOM     60  CE  LYS A   1      10.628 -11.474  12.784  0.00  0.00    -0.086 C 
BRANCH  60  61
ATOM     61  NZ  LYS A   1      11.783 -11.948  11.959  0.00  0.00    +0.380 N 
ATOM     62  HZ1 LYS A   1      12.297 -12.688  12.478  0.00  0.00    -0.089 HD
ATOM     63  HZ2 LYS A   1      12.422 -11.150  11.768  0.00  0.00    -0.089 HD
ATOM     64  HZ3 LYS A   1      11.430 -12.334  11.060  0.00  0.00    -0.089 HD
ENDBRANCH  60  61
ENDBRANCH  59  60
ENDBRANCH  58  59
ENDBRANCH  57  58
ENDBRANCH  54  57
ENDBRANCH  50  54
ENDBRANCH  49  52
BRANCH  49  65
ATOM     65  CB  MET A   2      12.820 -14.321  19.216  0.00  0.00    +0.041 C 
BRANCH  65  66
ATOM     66  CG  MET A   2      11.901 -14.666  20.393  0.00  0.00    +0.060 C 
BRANCH  66  67
ATOM     67  SD  MET A   2      12.458 -16.020  21.447  0.00  0.00    -0.139 S 
ATOM     68  CE  MET A   2      13.958 -15.328  22.135  0.00  0.00    +0.069 C 
ENDBRANCH  66  67
ENDBRANCH  65  66
ENDBRANCH  49  65
ENDBRANCH  45  49
ENDBRANCH  44  46
BRANCH  44  69
ATOM     69  CB  ILE A   3      13.816  -9.338  16.261  0.00  0.00    +0.027 C 
ATOM     70  CG2 ILE A   3      12.816  -9.813  15.213  0.00  0.00    +0.002 C 
BRANCH  69  71
ATOM     71  CG1 ILE A   3      13.122  -8.442  17.290  0.00  0.00    +0.002 C 
ATOM     72  CD1 ILE A   3      12.857  -7.061  16.769  0.00  0.00    +0.000 C 
ENDBRANCH  69  71
ENDBRANCH  44  69
ENDBRANCH  40  44
ENDBRANCH  39  42
ENDBRANCH   1  39
TORSDOF 32
REMARK  Name = ../refined-set-2016/2q54/2q54_pocket.pdb
REMARK  199 active torsions:
REMARK  status: ('A' for Active; 'I' for Inactive)
REMARK    1  A    between atoms: _1  and  _3
REMARK    2  A    between atoms: _3  and  _4
REMARK    3  A    between atoms: _3  and  _6
REMARK    4  A    between atoms: _6  and  _7
REMARK    5  A    between atoms: _7  and  _8
REMARK    6  A    between atoms: _8  and  _9
REMARK    7  A    between atoms: _18  and  _20
REMARK    8  A    between atoms: _20  and  _21
REMARK    9  A    between atoms: _20  and  _23
REMARK   10  A    between atoms: _23  and  _24
REMARK   11  A    between atoms: _27  and  _29
REMARK   12  A    between atoms: _29  and  _30
REMARK   13  A    between atoms: _29  and  _32
REMARK   14  A    between atoms: _32  and  _33
REMARK   15  A    between atoms: _36  and  _38
REMARK   16  A    between atoms: _38  and  _39
REMARK   17  A    between atoms: _38  and  _41
REMARK   18  A    between atoms: _41  and  _42
REMARK   19  A    between atoms: _45  and  _47
REMARK   20  A    between atoms: _47  and  _48
REMARK   21  A    between atoms: _47  and  _50
REMARK   22  A    between atoms: _50  and  _51
REMARK   23  A    between atoms: _54  and  _56
REMARK   24  A    between atoms: _56  and  _57
REMARK   25  A    between atoms: _59  and  _61
REMARK   26  A    between atoms: _61  and  _62
REMARK   27  A    between atoms: _65  and  _67
REMARK   28  A    between atoms: _67  and  _68
REMARK   29  A    between atoms: _67  and  _70
REMARK   30  A    between atoms: _70  and  _71
REMARK   31  A    between atoms: _74  and  _76
REMARK   32  A    between atoms: _76  and  _77
REMARK   33  A    between atoms: _76  and  _79
REMARK   34  A    between atoms: _79  and  _80
REMARK   35  A    between atoms: _83  and  _85
REMARK   36  A    between atoms: _85  and  _86
REMARK   37  A    between atoms: _85  and  _88
REMARK   38  A    between atoms: _88  and  _89
REMARK   39  A    between atoms: _92  and  _94
REMARK   40  A    between atoms: _94  and  _95
REMARK   41  A    between atoms: _94  and  _97
REMARK   42  A    between atoms: _100  and  _102
REMARK   43  A    between atoms: _102  and  _103
REMARK   44  A    between atoms: _102  and  _105
REMARK   45  A    between atoms: _105  and  _106
REMARK   46  A    between atoms: _109  and  _111
REMARK   47  A    between atoms: _111  and  _112
REMARK   48  A    between atoms: _114  and  _116
REMARK   49  A    between atoms: _116  and  _117
REMARK   50  A    between atoms: _119  and  _121
REMARK   51  A    between atoms: _121  and  _122
REMARK   52  A    between atoms: _121  and  _124
REMARK   53  A    between atoms: _124  and  _125
REMARK   54  A    between atoms: _128  and  _130
REMARK   55  A    between atoms: _130  and  _131
REMARK   56  A    between atoms: _133  and  _135
REMARK   57  A    between atoms: _135  and  _136
REMARK   58  A    between atoms: _138  and  _140
REMARK   59  A    between atoms: _140  and  _141
REMARK   60  A    between atoms: _140  and  _143
REMARK   61  A    between atoms: _143  and  _144
REMARK   62  A    between atoms: _150  and  _152
REMARK   63  A    between atoms: _152  and  _153
REMARK   64  A    between atoms: _152  and  _155
REMARK   65  A    between atoms: _155  and  _156
REMARK   66  A    between atoms: _159  and  _161
REMARK   67  A    between atoms: _161  and  _162
REMARK   68  A    between atoms: _161  and  _164
REMARK   69  A    between atoms: _164  and  _165
REMARK   70  A    between atoms: _169  and  _170
REMARK   71  A    between atoms: _175  and  _177
REMARK   72  A    between atoms: _177  and  _178
REMARK   73  A    between atoms: _177  and  _180
REMARK   74  A    between atoms: _180  and  _181
REMARK   75  A    between atoms: _185  and  _186
REMARK   76  A    between atoms: _191  and  _193
REMARK   77  A    between atoms: _193  and  _194
REMARK   78  A    between atoms: _193  and  _196
REMARK   79  A    between atoms: _199  and  _201
REMARK   80  A    between atoms: _201  and  _202
REMARK   81  A    between atoms: _201  and  _204
REMARK   82  A    between atoms: _204  and  _205
REMARK   83  A    between atoms: _210  and  _212
REMARK   84  A    between atoms: _212  and  _213
REMARK   85  A    between atoms: _212  and  _215
REMARK   86  A    between atoms: _215  and  _216
REMARK   87  A    between atoms: _219  and  _221
REMARK   88  A    between atoms: _221  and  _222
REMARK   89  A    between atoms: _221  and  _224
REMARK   90  A    between atoms: _224  and  _225
REMARK   91  A    between atoms: _228  and  _230
REMARK   92  A    between atoms: _230  and  _231
REMARK   93  A    between atoms: _233  and  _235
REMARK   94  A    between atoms: _235  and  _236
REMARK   95  A    between atoms: _235  and  _238
REMARK   96  A    between atoms: _238  and  _239
REMARK   97  A    between atoms: _239  and  _240
REMARK   98  A    between atoms: _240  and  _241
REMARK   99  A    between atoms: _250  and  _252
REMARK  100  A    between atoms: _252  and  _253
REMARK  101  A    between atoms: _252  and  _255
REMARK  102  A    between atoms: _255  and  _256
REMARK  103  A    between atoms: _256  and  _257
REMARK  104  A    between atoms: _257  and  _258
REMARK  105  A    between atoms: _267  and  _269
REMARK  106  A    between atoms: _269  and  _270
REMARK  107  A    between atoms: _269  and  _272
REMARK  108  A    between atoms: _272  and  _273
REMARK  109  A    between atoms: _276  and  _278
REMARK  110  A    between atoms: _278  and  _279
REMARK  111  A    between atoms: _278  and  _281
REMARK  112  A    between atoms: _281  and  _282
REMARK  113  A    between atoms: _285  and  _287
REMARK  114  A    between atoms: _287  and  _288
REMARK  115  A    between atoms: _287  and  _290
REMARK  116  A    between atoms: _290  and  _291
REMARK  117  A    between atoms: _294  and  _296
REMARK  118  A    between atoms: _296  and  _297
REMARK  119  A    between atoms: _296  and  _299
REMARK  120  A    between atoms: _299  and  _300
REMARK  121  A    between atoms: _303  and  _305
REMARK  122  A    between atoms: _305  and  _306
REMARK  123  A    between atoms: _308  and  _310
REMARK  124  A    between atoms: _310  and  _311
REMARK  125  A    between atoms: _314  and  _316
REMARK  126  A    between atoms: _316  and  _317
REMARK  127  A    between atoms: _316  and  _319
REMARK  128  A    between atoms: _319  and  _320
REMARK  129  A    between atoms: _323  and  _325
REMARK  130  A    between atoms: _325  and  _326
REMARK  131  A    between atoms: _325  and  _328
REMARK  132  A    between atoms: _328  and  _329
REMARK  133  A    between atoms: _332  and  _334
REMARK  134  A    between atoms: _334  and  _335
REMARK  135  A    between atoms: _334  and  _337
REMARK  136  A    between atoms: _337  and  _338
REMARK  137  A    between atoms: _341  and  _343
REMARK  138  A    between atoms: _343  and  _344
REMARK  139  A    between atoms: _343  and  _346
REMARK  140  A    between atoms: _349  and  _351
REMARK  141  A    between atoms: _351  and  _352
REMARK  142  A    between atoms: _351  and  _354
REMARK  143  A    between atoms: _354  and  _355
REMARK  144  A    between atoms: _355  and  _356
REMARK  145  A    between atoms: _356  and  _357
REMARK  146  A    between atoms: _357  and  _358
REMARK  147  A    between atoms: _362  and  _364
REMARK  148  A    between atoms: _364  and  _365
REMARK  149  A    between atoms: _364  and  _367
REMARK  150  A    between atoms: _367  and  _368
REMARK  151  A    between atoms: _368  and  _369
REMARK  152  A    between atoms: _371  and  _373
REMARK  153  A    between atoms: _373  and  _374
REMARK  154  A    between atoms: _373  and  _376
REMARK  155  A    between atoms: _376  and  _377
REMARK  156  A    between atoms: _380  and  _382
REMARK  157  A    between atoms: _382  and  _383
REMARK  158  A    between atoms: _385  and  _387
REMARK  159  A    between atoms: _387  and  _388
REMARK  160  A    between atoms: _390  and  _392
REMARK  161  A    between atoms: _392  and  _393
REMARK  162  A    between atoms: _392  and  _395
REMARK  163  A    between atoms: _395  and  _396
REMARK  164  A    between atoms: _399  and  _401
REMARK  165  A    between atoms: _401  and  _402
REMARK  166  A    between atoms: _404  and  _406
REMARK  167  A    between atoms: _406  and  _407
REMARK  168  A    between atoms: _409  and  _411
REMARK  169  A    between atoms: _411  and  _412
REMARK  170  A    between atoms: _411  and  _414
REMARK  171  A    between atoms: _414  and  _415
REMARK  172  A    between atoms: _421  and  _423
REMARK  173  A    between atoms: _423  and  _424
REMARK  174  A    between atoms: _423  and  _426
REMARK  175  A    between atoms: _426  and  _427
REMARK  176  A    between atoms: _431  and  _432
REMARK  177  A    between atoms: _437  and  _439
REMARK  178  A    between atoms: _439  and  _440
REMARK  179  A    between atoms: _439  and  _442
REMARK  180  A    between atoms: _445  and  _447
REMARK  181  A    between atoms: _447  and  _448
REMARK  182  A    between atoms: _447  and  _450
REMARK  183  A    between atoms: _450  and  _451
REMARK  184  A    between atoms: _456  and  _458
REMARK  185  A    between atoms: _458  and  _459
REMARK  186  A    between atoms: _458  and  _461
REMARK  187  A    between atoms: _461  and  _462
REMARK  188  A    between atoms: _465  and  _467
REMARK  189  A    between atoms: _467  and  _468
REMARK  190  A    between atoms: _467  and  _470
REMARK  191  A    between atoms: _470  and  _471
REMARK  192  A    between atoms: _474  and  _476
REMARK  193  A    between atoms: _476  and  _477
REMARK  194  A    between atoms: _479  and  _481
REMARK  195  A    between atoms: _481  and  _482
REMARK  196  A    between atoms: _481  and  _484
REMARK  197  A    between atoms: _484  and  _485
REMARK  198  A    between atoms: _485  and  _486
REMARK  199  A    between atoms: _486  and  _487
REMARK                            x       y       z     vdW  Elec       q    Type
REMARK                         _______ _______ _______ _____ _____    ______ ____
ROOT
ATOM      1  CA  ILE A   5      12.336   1.672  14.073  0.00  0.00    +0.149 C 
ENDROOT
BRANCH   1   4
ATOM      2  C   ASN A   4      11.229   2.987  15.827  0.00  0.00    +0.241 C 
ATOM      3  O   ASN A   4      11.903   4.013  15.623  0.00  0.00    -0.273 OA
ATOM      4  N   ILE A   5      11.336   1.873  15.101  0.00  0.00    -0.297 N 
ATOM      5  H   ILE A   5      10.661   1.103  15.284  0.00  0.00    +0.150 HD
BRANCH   2   6
ATOM      6  CA  ASN A   4      10.199   2.930  16.970  0.00  0.00    +0.158 C 
BRANCH   6   9
ATOM      7  C   VAL A   3      11.739   2.595  18.837  0.00  0.00    +0.241 C 
ATOM      8  O   VAL A   3      11.995   1.437  18.487  0.00  0.00    -0.273 OA
ATOM      9  N   ASN A   4      10.833   3.355  18.219  0.00  0.00    -0.297 N 
ATOM     10  H   ASN A   4      10.571   4.272  18.635  0.00  0.00    +0.150 HD
BRANCH   7  11
ATOM     11  CA  VAL A   3      12.462   3.218  20.034  0.00  0.00    +0.149 C 
BRANCH  11  14
ATOM     12  C   PRO A   2      12.604   2.428  22.355  0.00  0.00    +0.241 C 
ATOM     13  O   PRO A   2      12.275   3.522  22.833  0.00  0.00    -0.273 OA
ATOM     14  N   VAL A   3      12.681   2.190  21.047  0.00  0.00    -0.297 N 
ATOM     15  H   VAL A   3      12.908   1.225  20.732  0.00  0.00    +0.150 HD
BRANCH  12  18
ATOM     16  C   THR A   1      11.667  -0.574  22.344  0.00  0.00    +0.244 C 
ATOM     17  N   PRO A   2      12.865  -0.068  22.680  0.00  0.00    -0.272 N 
ATOM     18  CA  PRO A   2      12.975   1.269  23.280  0.00  0.00    +0.152 C 
ATOM     19  CB  PRO A   2      14.469   1.382  23.631  0.00  0.00    +0.031 C 
ATOM     20  CG  PRO A   2      15.019  -0.001  23.530  0.00  0.00    +0.024 C 
ATOM     21  CD  PRO A   2      14.182  -0.707  22.524  0.00  0.00    +0.094 C 
ATOM     22  O   THR A   1      10.624   0.018  22.578  0.00  0.00    -0.273 OA
BRANCH  16  23
ATOM     23  CA  THR A   1      11.635  -1.948  21.640  0.00  0.00    +0.172 C 
BRANCH  23  24
ATOM     24  N   THR A   1      10.492  -2.700  22.122  0.00  0.00    -0.236 NA
ATOM     25  H   THR A   1       9.620  -2.719  21.555  0.00  0.00    +0.142 HD
ENDBRANCH  23  24
BRANCH  23  26
ATOM     26  CB  THR A   1      11.601  -1.775  20.104  0.00  0.00    +0.135 C 
ATOM     27  CG2 THR A   1      10.287  -1.130  19.628  0.00  0.00    +0.034 C 
BRANCH  26  28
ATOM     28  OG1 THR A   1      12.699  -0.958  19.695  0.00  0.00    -0.383 OA
ATOM     29  HG1 THR A   1      12.629  -0.071  20.130  0.00  0.00    +0.210 HD
ENDBRANCH  26  28
ENDBRANCH  23  26
ENDBRANCH  16  23
ENDBRANCH  12  18
ENDBRANCH  11  14
BRANCH  11  30
ATOM     30  CB  VAL A   3      13.819   3.820  19.573  0.00  0.00    +0.027 C 
ATOM     31  CG2 VAL A   3      14.559   4.439  20.754  0.00  0.00    +0.002 C 
ATOM     32  CG1 VAL A   3      13.626   4.848  18.459  0.00  0.00    +0.002 C 
ENDBRANCH  11  30
ENDBRANCH   7  11
ENDBRANCH   6   9
BRANCH   6  33
ATOM     33  CB  ASN A   4       8.995   3.810  16.625  0.00  0.00    +0.114 C 
BRANCH  33  34
ATOM     34  CG  ASN A   4       7.856   3.677  17.620  0.00  0.00    +0.222 C 
ATOM     35  ND2 ASN A   4       7.320   4.806  18.050  0.00  0.00    -0.329 N 
ATOM     36 HD21 ASN A   4       6.522   4.782  18.717  0.00  0.00    +0.145 HD
ATOM     37 HD22 ASN A   4       7.696   5.718  17.721  0.00  0.00    +0.145 HD
ATOM     38  OD1 ASN A   4       7.450   2.572  17.977  0.00  0.00    -0.275 OA
ENDBRANCH  33  34
ENDBRANCH   6  33
ENDBRANCH   2   6
ENDBRANCH   1   4
BRANCH   1  39
ATOM     39  C   ILE A   5      11.676   1.380  12.717  0.00  0.00    +0.241 C 
ATOM     40  O   ILE A   5      10.935   0.402  12.585  0.00  0.00    -0.273 OA
ATOM     41  N   ILE A   6      11.929   2.240  11.730  0.00  0.00    -0.297 N 
ATOM     42  H   ILE A   6      12.433   3.124  11.943  0.00  0.00    +0.150 HD
BRANCH  41  43
ATOM     43  CA  ILE A   6      11.515   1.969  10.361  0.00  0.00    +0.149 C 
BRANCH  43  44
ATOM     44  C   ILE A   6      12.680   1.321   9.653  0.00  0.00    +0.241 C 
ATOM     45  O   ILE A   6      13.722   1.960   9.410  0.00  0.00    -0.273 OA
ATOM     46  N   GLY A   7      12.494   0.046   9.320  0.00  0.00    -0.295 N 
ATOM     47  H   GLY A   7      11.565  -0.385   9.500  0.00  0.00    +0.150 HD
BRANCH  46  48
ATOM     48  CA  GLY A   7      13.531  -0.769   8.717  0.00  0.00    +0.176 C 
BRANCH  48  49
ATOM     49  C   GLY A   7      13.487  -0.795   7.205  0.00  0.00    +0.243 C 
ATOM     50  N   ARG A   8      14.458  -1.485   6.623  0.00  0.00    -0.298 N 
ATOM     51  H   ARG A   8      15.116  -2.025   7.220  0.00  0.00    +0.150 HD
ATOM     52  O   GLY A   7      12.598  -0.225   6.578  0.00  0.00    -0.273 OA
BRANCH  50  53
ATOM     53  CA  ARG A   8      14.637  -1.514   5.178  0.00  0.00    +0.137 C 
BRANCH  53  54
ATOM     54  C   ARG A   8      13.426  -2.019   4.406  0.00  0.00    +0.227 C 
ATOM     55  O   ARG A   8      13.209  -1.608   3.264  0.00  0.00    -0.286 OA
ENDBRANCH  53  54
BRANCH  53  56
ATOM     56  CB  ARG A   8      15.885  -2.322   4.807  0.00  0.00    +0.031 C 
BRANCH  56  57
ATOM     57  CG  ARG A   8      17.197  -1.621   5.194  0.00  0.00    +0.045 C 
BRANCH  57  58
ATOM     58  CD  ARG A   8      18.434  -2.390   4.730  0.00  0.00    +0.174 C 
BRANCH  58  59
ATOM     59  NE  ARG A   8      18.474  -3.771   5.219  0.00  0.00    -0.265 N 
ATOM     60  HE  ARG A   8      18.791  -3.918   6.198  0.00  0.00    +0.259 HD
ATOM     61  CZ  ARG A   8      18.139  -4.858   4.518  0.00  0.00    +0.342 C 
ATOM     62  NH2 ARG A   8      18.224  -6.050   5.095  0.00  0.00    -0.292 N 
ATOM     63 HH21 ARG A   8      18.548  -6.129   6.080  0.00  0.00    +0.255 HD
ATOM     64 HH22 ARG A   8      17.967  -6.905   4.562  0.00  0.00    +0.255 HD
ATOM     65  NH1 ARG A   8      17.705  -4.785   3.269  0.00  0.00    -0.292 N 
ATOM     66 HH11 ARG A   8      17.616  -3.860   2.803  0.00  0.00    +0.255 HD
ATOM     67 HH12 ARG A   8      17.453  -5.653   2.754  0.00  0.00    +0.255 HD
ENDBRANCH  58  59
ENDBRANCH  57  58
ENDBRANCH  56  57
ENDBRANCH  53  56
ENDBRANCH  50  53
ENDBRANCH  48  49
ENDBRANCH  46  48
ENDBRANCH  43  44
BRANCH  43  68
ATOM     68  CB  ILE A   6      11.096   3.242   9.594  0.00  0.00    +0.027 C 
ATOM     69  CG2 ILE A   6      10.694   2.887   8.146  0.00  0.00    +0.002 C 
BRANCH  68  70
ATOM     70  CG1 ILE A   6       9.946   3.946  10.318  0.00  0.00    +0.002 C 
ATOM     71  CD1 ILE A   6       8.718   3.075  10.561  0.00  0.00    +0.000 C 
ENDBRANCH  68  70
ENDBRANCH  43  68
ENDBRANCH  41  43
ENDBRANCH   1  39
BRANCH   1  72
ATOM     72  CB  ILE A   5      13.228   0.472  14.430  0.00  0.00    +0.027 C 
ATOM     73  CG2 ILE A   5      14.111   0.090  13.243  0.00  0.00    +0.002 C 
BRANCH  72  74
ATOM     74  CG1 ILE A   5      14.081   0.787  15.663  0.00  0.00    +0.002 C 
ATOM     75  CD1 ILE A   5      14.595  -0.457  16.374  0.00  0.00    +0.000 C 
ENDBRANCH  72  74
ENDBRANCH   1  72
TORSDOF 28
REMARK  Name = ../refined-set-2016/2q54/2q54_pocket.pdb
REMARK  199 active torsions:
REMARK  status: ('A' for Active; 'I' for Inactive)
REMARK    1  A    between atoms: _1  and  _3
REMARK    2  A    between atoms: _3  and  _4
REMARK    3  A    between atoms: _3  and  _6
REMARK    4  A    between atoms: _6  and  _7
REMARK    5  A    between atoms: _7  and  _8
REMARK    6  A    between atoms: _8  and  _9
REMARK    7  A    between atoms: _18  and  _20
REMARK    8  A    between atoms: _20  and  _21
REMARK    9  A    between atoms: _20  and  _23
REMARK   10  A    between atoms: _23  and  _24
REMARK   11  A    between atoms: _27  and  _29
REMARK   12  A    between atoms: _29  and  _30
REMARK   13  A    between atoms: _29  and  _32
REMARK   14  A    between atoms: _32  and  _33
REMARK   15  A    between atoms: _36  and  _38
REMARK   16  A    between atoms: _38  and  _39
REMARK   17  A    between atoms: _38  and  _41
REMARK   18  A    between atoms: _41  and  _42
REMARK   19  A    between atoms: _45  and  _47
REMARK   20  A    between atoms: _47  and  _48
REMARK   21  A    between atoms: _47  and  _50
REMARK   22  A    between atoms: _50  and  _51
REMARK   23  A    between atoms: _54  and  _56
REMARK   24  A    between atoms: _56  and  _57
REMARK   25  A    between atoms: _59  and  _61
REMARK   26  A    between atoms: _61  and  _62
REMARK   27  A    between atoms: _65  and  _67
REMARK   28  A    between atoms: _67  and  _68
REMARK   29  A    between atoms: _67  and  _70
REMARK   30  A    between atoms: _70  and  _71
REMARK   31  A    between atoms: _74  and  _76
REMARK   32  A    between atoms: _76  and  _77
REMARK   33  A    between atoms: _76  and  _79
REMARK   34  A    between atoms: _79  and  _80
REMARK   35  A    between atoms: _83  and  _85
REMARK   36  A    between atoms: _85  and  _86
REMARK   37  A    between atoms: _85  and  _88
REMARK   38  A    between atoms: _88  and  _89
REMARK   39  A    between atoms: _92  and  _94
REMARK   40  A    between atoms: _94  and  _95
REMARK   41  A    between atoms: _94  and  _97
REMARK   42  A    between atoms: _100  and  _102
REMARK   43  A    between atoms: _102  and  _103
REMARK   44  A    between atoms: _102  and  _105
REMARK   45  A    between atoms: _105  and  _106
REMARK   46  A    between atoms: _109  and  _111
REMARK   47  A    between atoms: _111  and  _112
REMARK   48  A    between atoms: _114  and  _116
REMARK   49  A    between atoms: _116  and  _117
REMARK   50  A    between atoms: _119  and  _121
REMARK   51  A    between atoms: _121  and  _122
REMARK   52  A    between atoms: _121  and  _124
REMARK   53  A    between atoms: _124  and  _125
REMARK   54  A    between atoms: _128  and  _130
REMARK   55  A    between atoms: _130  and  _131
REMARK   56  A    between atoms: _133  and  _135
REMARK   57  A    between atoms: _135  and  _136
REMARK   58  A    between atoms: _138  and  _140
REMARK   59  A    between atoms: _140  and  _141
REMARK   60  A    between atoms: _140  and  _143
REMARK   61  A    between atoms: _143  and  _144
REMARK   62  A    between atoms: _150  and  _152
REMARK   63  A    between atoms: _152  and  _153
REMARK   64  A    between atoms: _152  and  _155
REMARK   65  A    between atoms: _155  and  _156
REMARK   66  A    between atoms: _159  and  _161
REMARK   67  A    between atoms: _161  and  _162
REMARK   68  A    between atoms: _161  and  _164
REMARK   69  A    between atoms: _164  and  _165
REMARK   70  A    between atoms: _169  and  _170
REMARK   71  A    between atoms: _175  and  _177
REMARK   72  A    between atoms: _177  and  _178
REMARK   73  A    between atoms: _177  and  _180
REMARK   74  A    between atoms: _180  and  _181
REMARK   75  A    between atoms: _185  and  _186
REMARK   76  A    between atoms: _191  and  _193
REMARK   77  A    between atoms: _193  and  _194
REMARK   78  A    between atoms: _193  and  _196
REMARK   79  A    between atoms: _199  and  _201
REMARK   80  A    between atoms: _201  and  _202
REMARK   81  A    between atoms: _201  and  _204
REMARK   82  A    between atoms: _204  and  _205
REMARK   83  A    between atoms: _210  and  _212
REMARK   84  A    between atoms: _212  and  _213
REMARK   85  A    between atoms: _212  and  _215
REMARK   86  A    between atoms: _215  and  _216
REMARK   87  A    between atoms: _219  and  _221
REMARK   88  A    between atoms: _221  and  _222
REMARK   89  A    between atoms: _221  and  _224
REMARK   90  A    between atoms: _224  and  _225
REMARK   91  A    between atoms: _228  and  _230
REMARK   92  A    between atoms: _230  and  _231
REMARK   93  A    between atoms: _233  and  _235
REMARK   94  A    between atoms: _235  and  _236
REMARK   95  A    between atoms: _235  and  _238
REMARK   96  A    between atoms: _238  and  _239
REMARK   97  A    between atoms: _239  and  _240
REMARK   98  A    between atoms: _240  and  _241
REMARK   99  A    between atoms: _250  and  _252
REMARK  100  A    between atoms: _252  and  _253
REMARK  101  A    between atoms: _252  and  _255
REMARK  102  A    between atoms: _255  and  _256
REMARK  103  A    between atoms: _256  and  _257
REMARK  104  A    between atoms: _257  and  _258
REMARK  105  A    between atoms: _267  and  _269
REMARK  106  A    between atoms: _269  and  _270
REMARK  107  A    between atoms: _269  and  _272
REMARK  108  A    between atoms: _272  and  _273
REMARK  109  A    between atoms: _276  and  _278
REMARK  110  A    between atoms: _278  and  _279
REMARK  111  A    between atoms: _278  and  _281
REMARK  112  A    between atoms: _281  and  _282
REMARK  113  A    between atoms: _285  and  _287
REMARK  114  A    between atoms: _287  and  _288
REMARK  115  A    between atoms: _287  and  _290
REMARK  116  A    between atoms: _290  and  _291
REMARK  117  A    between atoms: _294  and  _296
REMARK  118  A    between atoms: _296  and  _297
REMARK  119  A    between atoms: _296  and  _299
REMARK  120  A    between atoms: _299  and  _300
REMARK  121  A    between atoms: _303  and  _305
REMARK  122  A    between atoms: _305  and  _306
REMARK  123  A    between atoms: _308  and  _310
REMARK  124  A    between atoms: _310  and  _311
REMARK  125  A    between atoms: _314  and  _316
REMARK  126  A    between atoms: _316  and  _317
REMARK  127  A    between atoms: _316  and  _319
REMARK  128  A    between atoms: _319  and  _320
REMARK  129  A    between atoms: _323  and  _325
REMARK  130  A    between atoms: _325  and  _326
REMARK  131  A    between atoms: _325  and  _328
REMARK  132  A    between atoms: _328  and  _329
REMARK  133  A    between atoms: _332  and  _334
REMARK  134  A    between atoms: _334  and  _335
REMARK  135  A    between atoms: _334  and  _337
REMARK  136  A    between atoms: _337  and  _338
REMARK  137  A    between atoms: _341  and  _343
REMARK  138  A    between atoms: _343  and  _344
REMARK  139  A    between atoms: _343  and  _346
REMARK  140  A    between atoms: _349  and  _351
REMARK  141  A    between atoms: _351  and  _352
REMARK  142  A    between atoms: _351  and  _354
REMARK  143  A    between atoms: _354  and  _355
REMARK  144  A    between atoms: _355  and  _356
REMARK  145  A    between atoms: _356  and  _357
REMARK  146  A    between atoms: _357  and  _358
REMARK  147  A    between atoms: _362  and  _364
REMARK  148  A    between atoms: _364  and  _365
REMARK  149  A    between atoms: _364  and  _367
REMARK  150  A    between atoms: _367  and  _368
REMARK  151  A    between atoms: _368  and  _369
REMARK  152  A    between atoms: _371  and  _373
REMARK  153  A    between atoms: _373  and  _374
REMARK  154  A    between atoms: _373  and  _376
REMARK  155  A    between atoms: _376  and  _377
REMARK  156  A    between atoms: _380  and  _382
REMARK  157  A    between atoms: _382  and  _383
REMARK  158  A    between atoms: _385  and  _387
REMARK  159  A    between atoms: _387  and  _388
REMARK  160  A    between atoms: _390  and  _392
REMARK  161  A    between atoms: _392  and  _393
REMARK  162  A    between atoms: _392  and  _395
REMARK  163  A    between atoms: _395  and  _396
REMARK  164  A    between atoms: _399  and  _401
REMARK  165  A    between atoms: _401  and  _402
REMARK  166  A    between atoms: _404  and  _406
REMARK  167  A    between atoms: _406  and  _407
REMARK  168  A    between atoms: _409  and  _411
REMARK  169  A    between atoms: _411  and  _412
REMARK  170  A    between atoms: _411  and  _414
REMARK  171  A    between atoms: _414  and  _415
REMARK  172  A    between atoms: _421  and  _423
REMARK  173  A    between atoms: _423  and  _424
REMARK  174  A    between atoms: _423  and  _426
REMARK  175  A    between atoms: _426  and  _427
REMARK  176  A    between atoms: _431  and  _432
REMARK  177  A    between atoms: _437  and  _439
REMARK  178  A    between atoms: _439  and  _440
REMARK  179  A    between atoms: _439  and  _442
REMARK  180  A    between atoms: _445  and  _447
REMARK  181  A    between atoms: _447  and  _448
REMARK  182  A    between atoms: _447  and  _450
REMARK  183  A    between atoms: _450  and  _451
REMARK  184  A    between atoms: _456  and  _458
REMARK  185  A    between atoms: _458  and  _459
REMARK  186  A    between atoms: _458  and  _461
REMARK  187  A    between atoms: _461  and  _462
REMARK  188  A    between atoms: _465  and  _467
REMARK  189  A    between atoms: _467  and  _468
REMARK  190  A    between atoms: _467  and  _470
REMARK  191  A    between atoms: _470  and  _471
REMARK  192  A    between atoms: _474  and  _476
REMARK  193  A    between atoms: _476  and  _477
REMARK  194  A    between atoms: _479  and  _481
REMARK  195  A    between atoms: _481  and  _482
REMARK  196  A    between atoms: _481  and  _484
REMARK  197  A    between atoms: _484  and  _485
REMARK  198  A    between atoms: _485  and  _486
REMARK  199  A    between atoms: _486  and  _487
REMARK                            x       y       z     vdW  Elec       q    Type
REMARK                         _______ _______ _______ _____ _____    ______ ____
ROOT
ATOM      1  O   HOH     1      20.288   7.297  15.134  0.00  0.00    +0.000 OA
ENDROOT
TORSDOF 0
REMARK  Name = ../refined-set-2016/2q54/2q54_pocket.pdb
REMARK  199 active torsions:
REMARK  status: ('A' for Active; 'I' for Inactive)
REMARK    1  A    between atoms: _1  and  _3
REMARK    2  A    between atoms: _3  and  _4
REMARK    3  A    between atoms: _3  and  _6
REMARK    4  A    between atoms: _6  and  _7
REMARK    5  A    between atoms: _7  and  _8
REMARK    6  A    between atoms: _8  and  _9
REMARK    7  A    between atoms: _18  and  _20
REMARK    8  A    between atoms: _20  and  _21
REMARK    9  A    between atoms: _20  and  _23
REMARK   10  A    between atoms: _23  and  _24
REMARK   11  A    between atoms: _27  and  _29
REMARK   12  A    between atoms: _29  and  _30
REMARK   13  A    between atoms: _29  and  _32
REMARK   14  A    between atoms: _32  and  _33
REMARK   15  A    between atoms: _36  and  _38
REMARK   16  A    between atoms: _38  and  _39
REMARK   17  A    between atoms: _38  and  _41
REMARK   18  A    between atoms: _41  and  _42
REMARK   19  A    between atoms: _45  and  _47
REMARK   20  A    between atoms: _47  and  _48
REMARK   21  A    between atoms: _47  and  _50
REMARK   22  A    between atoms: _50  and  _51
REMARK   23  A    between atoms: _54  and  _56
REMARK   24  A    between atoms: _56  and  _57
REMARK   25  A    between atoms: _59  and  _61
REMARK   26  A    between atoms: _61  and  _62
REMARK   27  A    between atoms: _65  and  _67
REMARK   28  A    between atoms: _67  and  _68
REMARK   29  A    between atoms: _67  and  _70
REMARK   30  A    between atoms: _70  and  _71
REMARK   31  A    between atoms: _74  and  _76
REMARK   32  A    between atoms: _76  and  _77
REMARK   33  A    between atoms: _76  and  _79
REMARK   34  A    between atoms: _79  and  _80
REMARK   35  A    between atoms: _83  and  _85
REMARK   36  A    between atoms: _85  and  _86
REMARK   37  A    between atoms: _85  and  _88
REMARK   38  A    between atoms: _88  and  _89
REMARK   39  A    between atoms: _92  and  _94
REMARK   40  A    between atoms: _94  and  _95
REMARK   41  A    between atoms: _94  and  _97
REMARK   42  A    between atoms: _100  and  _102
REMARK   43  A    between atoms: _102  and  _103
REMARK   44  A    between atoms: _102  and  _105
REMARK   45  A    between atoms: _105  and  _106
REMARK   46  A    between atoms: _109  and  _111
REMARK   47  A    between atoms: _111  and  _112
REMARK   48  A    between atoms: _114  and  _116
REMARK   49  A    between atoms: _116  and  _117
REMARK   50  A    between atoms: _119  and  _121
REMARK   51  A    between atoms: _121  and  _122
REMARK   52  A    between atoms: _121  and  _124
REMARK   53  A    between atoms: _124  and  _125
REMARK   54  A    between atoms: _128  and  _130
REMARK   55  A    between atoms: _130  and  _131
REMARK   56  A    between atoms: _133  and  _135
REMARK   57  A    between atoms: _135  and  _136
REMARK   58  A    between atoms: _138  and  _140
REMARK   59  A    between atoms: _140  and  _141
REMARK   60  A    between atoms: _140  and  _143
REMARK   61  A    between atoms: _143  and  _144
REMARK   62  A    between atoms: _150  and  _152
REMARK   63  A    between atoms: _152  and  _153
REMARK   64  A    between atoms: _152  and  _155
REMARK   65  A    between atoms: _155  and  _156
REMARK   66  A    between atoms: _159  and  _161
REMARK   67  A    between atoms: _161  and  _162
REMARK   68  A    between atoms: _161  and  _164
REMARK   69  A    between atoms: _164  and  _165
REMARK   70  A    between atoms: _169  and  _170
REMARK   71  A    between atoms: _175  and  _177
REMARK   72  A    between atoms: _177  and  _178
REMARK   73  A    between atoms: _177  and  _180
REMARK   74  A    between atoms: _180  and  _181
REMARK   75  A    between atoms: _185  and  _186
REMARK   76  A    between atoms: _191  and  _193
REMARK   77  A    between atoms: _193  and  _194
REMARK   78  A    between atoms: _193  and  _196
REMARK   79  A    between atoms: _199  and  _201
REMARK   80  A    between atoms: _201  and  _202
REMARK   81  A    between atoms: _201  and  _204
REMARK   82  A    between atoms: _204  and  _205
REMARK   83  A    between atoms: _210  and  _212
REMARK   84  A    between atoms: _212  and  _213
REMARK   85  A    between atoms: _212  and  _215
REMARK   86  A    between atoms: _215  and  _216
REMARK   87  A    between atoms: _219  and  _221
REMARK   88  A    between atoms: _221  and  _222
REMARK   89  A    between atoms: _221  and  _224
REMARK   90  A    between atoms: _224  and  _225
REMARK   91  A    between atoms: _228  and  _230
REMARK   92  A    between atoms: _230  and  _231
REMARK   93  A    between atoms: _233  and  _235
REMARK   94  A    between atoms: _235  and  _236
REMARK   95  A    between atoms: _235  and  _238
REMARK   96  A    between atoms: _238  and  _239
REMARK   97  A    between atoms: _239  and  _240
REMARK   98  A    between atoms: _240  and  _241
REMARK   99  A    between atoms: _250  and  _252
REMARK  100  A    between atoms: _252  and  _253
REMARK  101  A    between atoms: _252  and  _255
REMARK  102  A    between atoms: _255  and  _256
REMARK  103  A    between atoms: _256  and  _257
REMARK  104  A    between atoms: _257  and  _258
REMARK  105  A    between atoms: _267  and  _269
REMARK  106  A    between atoms: _269  and  _270
REMARK  107  A    between atoms: _269  and  _272
REMARK  108  A    between atoms: _272  and  _273
REMARK  109  A    between atoms: _276  and  _278
REMARK  110  A    between atoms: _278  and  _279
REMARK  111  A    between atoms: _278  and  _281
REMARK  112  A    between atoms: _281  and  _282
REMARK  113  A    between atoms: _285  and  _287
REMARK  114  A    between atoms: _287  and  _288
REMARK  115  A    between atoms: _287  and  _290
REMARK  116  A    between atoms: _290  and  _291
REMARK  117  A    between atoms: _294  and  _296
REMARK  118  A    between atoms: _296  and  _297
REMARK  119  A    between atoms: _296  and  _299
REMARK  120  A    between atoms: _299  and  _300
REMARK  121  A    between atoms: _303  and  _305
REMARK  122  A    between atoms: _305  and  _306
REMARK  123  A    between atoms: _308  and  _310
REMARK  124  A    between atoms: _310  and  _311
REMARK  125  A    between atoms: _314  and  _316
REMARK  126  A    between atoms: _316  and  _317
REMARK  127  A    between atoms: _316  and  _319
REMARK  128  A    between atoms: _319  and  _320
REMARK  129  A    between atoms: _323  and  _325
REMARK  130  A    between atoms: _325  and  _326
REMARK  131  A    between atoms: _325  and  _328
REMARK  132  A    between atoms: _328  and  _329
REMARK  133  A    between atoms: _332  and  _334
REMARK  134  A    between atoms: _334  and  _335
REMARK  135  A    between atoms: _334  and  _337
REMARK  136  A    between atoms: _337  and  _338
REMARK  137  A    between atoms: _341  and  _343
REMARK  138  A    between atoms: _343  and  _344
REMARK  139  A    between atoms: _343  and  _346
REMARK  140  A    between atoms: _349  and  _351
REMARK  141  A    between atoms: _351  and  _352
REMARK  142  A    between atoms: _351  and  _354
REMARK  143  A    between atoms: _354  and  _355
REMARK  144  A    between atoms: _355  and  _356
REMARK  145  A    between atoms: _356  and  _357
REMARK  146  A    between atoms: _357  and  _358
REMARK  147  A    between atoms: _362  and  _364
REMARK  148  A    between atoms: _364  and  _365
REMARK  149  A    between atoms: _364  and  _367
REMARK  150  A    between atoms: _367  and  _368
REMARK  151  A    between atoms: _368  and  _369
REMARK  152  A    between atoms: _371  and  _373
REMARK  153  A    between atoms: _373  and  _374
REMARK  154  A    between atoms: _373  and  _376
REMARK  155  A    between atoms: _376  and  _377
REMARK  156  A    between atoms: _380  and  _382
REMARK  157  A    between atoms: _382  and  _383
REMARK  158  A    between atoms: _385  and  _387
REMARK  159  A    between atoms: _387  and  _388
REMARK  160  A    between atoms: _390  and  _392
REMARK  161  A    between atoms: _392  and  _393
REMARK  162  A    between atoms: _392  and  _395
REMARK  163  A    between atoms: _395  and  _396
REMARK  164  A    between atoms: _399  and  _401
REMARK  165  A    between atoms: _401  and  _402
REMARK  166  A    between atoms: _404  and  _406
REMARK  167  A    between atoms: _406  and  _407
REMARK  168  A    between atoms: _409  and  _411
REMARK  169  A    between atoms: _411  and  _412
REMARK  170  A    between atoms: _411  and  _414
REMARK  171  A    between atoms: _414  and  _415
REMARK  172  A    between atoms: _421  and  _423
REMARK  173  A    between atoms: _423  and  _424
REMARK  174  A    between atoms: _423  and  _426
REMARK  175  A    between atoms: _426  and  _427
REMARK  176  A    between atoms: _431  and  _432
REMARK  177  A    between atoms: _437  and  _439
REMARK  178  A    between atoms: _439  and  _440
REMARK  179  A    between atoms: _439  and  _442
REMARK  180  A    between atoms: _445  and  _447
REMARK  181  A    between atoms: _447  and  _448
REMARK  182  A    between atoms: _447  and  _450
REMARK  183  A    between atoms: _450  and  _451
REMARK  184  A    between atoms: _456  and  _458
REMARK  185  A    between atoms: _458  and  _459
REMARK  186  A    between atoms: _458  and  _461
REMARK  187  A    between atoms: _461  and  _462
REMARK  188  A    between atoms: _465  and  _467
REMARK  189  A    between atoms: _467  and  _468
REMARK  190  A    between atoms: _467  and  _470
REMARK  191  A    between atoms: _470  and  _471
REMARK  192  A    between atoms: _474  and  _476
REMARK  193  A    between atoms: _476  and  _477
REMARK  194  A    between atoms: _479  and  _481
REMARK  195  A    between atoms: _481  and  _482
REMARK  196  A    between atoms: _481  and  _484
REMARK  197  A    between atoms: _484  and  _485
REMARK  198  A    between atoms: _485  and  _486
REMARK  199  A    between atoms: _486  and  _487
REMARK                            x       y       z     vdW  Elec       q    Type
REMARK                         _______ _______ _______ _____ _____    ______ ____
ROOT
ATOM      1  O   HOH     1      23.306   3.452  24.659  0.00  0.00    +0.000 OA
ENDROOT
TORSDOF 0
REMARK  Name = ../refined-set-2016/2q54/2q54_pocket.pdb
REMARK  199 active torsions:
REMARK  status: ('A' for Active; 'I' for Inactive)
REMARK    1  A    between atoms: _1  and  _3
REMARK    2  A    between atoms: _3  and  _4
REMARK    3  A    between atoms: _3  and  _6
REMARK    4  A    between atoms: _6  and  _7
REMARK    5  A    between atoms: _7  and  _8
REMARK    6  A    between atoms: _8  and  _9
REMARK    7  A    between atoms: _18  and  _20
REMARK    8  A    between atoms: _20  and  _21
REMARK    9  A    between atoms: _20  and  _23
REMARK   10  A    between atoms: _23  and  _24
REMARK   11  A    between atoms: _27  and  _29
REMARK   12  A    between atoms: _29  and  _30
REMARK   13  A    between atoms: _29  and  _32
REMARK   14  A    between atoms: _32  and  _33
REMARK   15  A    between atoms: _36  and  _38
REMARK   16  A    between atoms: _38  and  _39
REMARK   17  A    between atoms: _38  and  _41
REMARK   18  A    between atoms: _41  and  _42
REMARK   19  A    between atoms: _45  and  _47
REMARK   20  A    between atoms: _47  and  _48
REMARK   21  A    between atoms: _47  and  _50
REMARK   22  A    between atoms: _50  and  _51
REMARK   23  A    between atoms: _54  and  _56
REMARK   24  A    between atoms: _56  and  _57
REMARK   25  A    between atoms: _59  and  _61
REMARK   26  A    between atoms: _61  and  _62
REMARK   27  A    between atoms: _65  and  _67
REMARK   28  A    between atoms: _67  and  _68
REMARK   29  A    between atoms: _67  and  _70
REMARK   30  A    between atoms: _70  and  _71
REMARK   31  A    between atoms: _74  and  _76
REMARK   32  A    between atoms: _76  and  _77
REMARK   33  A    between atoms: _76  and  _79
REMARK   34  A    between atoms: _79  and  _80
REMARK   35  A    between atoms: _83  and  _85
REMARK   36  A    between atoms: _85  and  _86
REMARK   37  A    between atoms: _85  and  _88
REMARK   38  A    between atoms: _88  and  _89
REMARK   39  A    between atoms: _92  and  _94
REMARK   40  A    between atoms: _94  and  _95
REMARK   41  A    between atoms: _94  and  _97
REMARK   42  A    between atoms: _100  and  _102
REMARK   43  A    between atoms: _102  and  _103
REMARK   44  A    between atoms: _102  and  _105
REMARK   45  A    between atoms: _105  and  _106
REMARK   46  A    between atoms: _109  and  _111
REMARK   47  A    between atoms: _111  and  _112
REMARK   48  A    between atoms: _114  and  _116
REMARK   49  A    between atoms: _116  and  _117
REMARK   50  A    between atoms: _119  and  _121
REMARK   51  A    between atoms: _121  and  _122
REMARK   52  A    between atoms: _121  and  _124
REMARK   53  A    between atoms: _124  and  _125
REMARK   54  A    between atoms: _128  and  _130
REMARK   55  A    between atoms: _130  and  _131
REMARK   56  A    between atoms: _133  and  _135
REMARK   57  A    between atoms: _135  and  _136
REMARK   58  A    between atoms: _138  and  _140
REMARK   59  A    between atoms: _140  and  _141
REMARK   60  A    between atoms: _140  and  _143
REMARK   61  A    between atoms: _143  and  _144
REMARK   62  A    between atoms: _150  and  _152
REMARK   63  A    between atoms: _152  and  _153
REMARK   64  A    between atoms: _152  and  _155
REMARK   65  A    between atoms: _155  and  _156
REMARK   66  A    between atoms: _159  and  _161
REMARK   67  A    between atoms: _161  and  _162
REMARK   68  A    between atoms: _161  and  _164
REMARK   69  A    between atoms: _164  and  _165
REMARK   70  A    between atoms: _169  and  _170
REMARK   71  A    between atoms: _175  and  _177
REMARK   72  A    between atoms: _177  and  _178
REMARK   73  A    between atoms: _177  and  _180
REMARK   74  A    between atoms: _180  and  _181
REMARK   75  A    between atoms: _185  and  _186
REMARK   76  A    between atoms: _191  and  _193
REMARK   77  A    between atoms: _193  and  _194
REMARK   78  A    between atoms: _193  and  _196
REMARK   79  A    between atoms: _199  and  _201
REMARK   80  A    between atoms: _201  and  _202
REMARK   81  A    between atoms: _201  and  _204
REMARK   82  A    between atoms: _204  and  _205
REMARK   83  A    between atoms: _210  and  _212
REMARK   84  A    between atoms: _212  and  _213
REMARK   85  A    between atoms: _212  and  _215
REMARK   86  A    between atoms: _215  and  _216
REMARK   87  A    between atoms: _219  and  _221
REMARK   88  A    between atoms: _221  and  _222
REMARK   89  A    between atoms: _221  and  _224
REMARK   90  A    between atoms: _224  and  _225
REMARK   91  A    between atoms: _228  and  _230
REMARK   92  A    between atoms: _230  and  _231
REMARK   93  A    between atoms: _233  and  _235
REMARK   94  A    between atoms: _235  and  _236
REMARK   95  A    between atoms: _235  and  _238
REMARK   96  A    between atoms: _238  and  _239
REMARK   97  A    between atoms: _239  and  _240
REMARK   98  A    between atoms: _240  and  _241
REMARK   99  A    between atoms: _250  and  _252
REMARK  100  A    between atoms: _252  and  _253
REMARK  101  A    between atoms: _252  and  _255
REMARK  102  A    between atoms: _255  and  _256
REMARK  103  A    between atoms: _256  and  _257
REMARK  104  A    between atoms: _257  and  _258
REMARK  105  A    between atoms: _267  and  _269
REMARK  106  A    between atoms: _269  and  _270
REMARK  107  A    between atoms: _269  and  _272
REMARK  108  A    between atoms: _272  and  _273
REMARK  109  A    between atoms: _276  and  _278
REMARK  110  A    between atoms: _278  and  _279
REMARK  111  A    between atoms: _278  and  _281
REMARK  112  A    between atoms: _281  and  _282
REMARK  113  A    between atoms: _285  and  _287
REMARK  114  A    between atoms: _287  and  _288
REMARK  115  A    between atoms: _287  and  _290
REMARK  116  A    between atoms: _290  and  _291
REMARK  117  A    between atoms: _294  and  _296
REMARK  118  A    between atoms: _296  and  _297
REMARK  119  A    between atoms: _296  and  _299
REMARK  120  A    between atoms: _299  and  _300
REMARK  121  A    between atoms: _303  and  _305
REMARK  122  A    between atoms: _305  and  _306
REMARK  123  A    between atoms: _308  and  _310
REMARK  124  A    between atoms: _310  and  _311
REMARK  125  A    between atoms: _314  and  _316
REMARK  126  A    between atoms: _316  and  _317
REMARK  127  A    between atoms: _316  and  _319
REMARK  128  A    between atoms: _319  and  _320
REMARK  129  A    between atoms: _323  and  _325
REMARK  130  A    between atoms: _325  and  _326
REMARK  131  A    between atoms: _325  and  _328
REMARK  132  A    between atoms: _328  and  _329
REMARK  133  A    between atoms: _332  and  _334
REMARK  134  A    between atoms: _334  and  _335
REMARK  135  A    between atoms: _334  and  _337
REMARK  136  A    between atoms: _337  and  _338
REMARK  137  A    between atoms: _341  and  _343
REMARK  138  A    between atoms: _343  and  _344
REMARK  139  A    between atoms: _343  and  _346
REMARK  140  A    between atoms: _349  and  _351
REMARK  141  A    between atoms: _351  and  _352
REMARK  142  A    between atoms: _351  and  _354
REMARK  143  A    between atoms: _354  and  _355
REMARK  144  A    between atoms: _355  and  _356
REMARK  145  A    between atoms: _356  and  _357
REMARK  146  A    between atoms: _357  and  _358
REMARK  147  A    between atoms: _362  and  _364
REMARK  148  A    between atoms: _364  and  _365
REMARK  149  A    between atoms: _364  and  _367
REMARK  150  A    between atoms: _367  and  _368
REMARK  151  A    between atoms: _368  and  _369
REMARK  152  A    between atoms: _371  and  _373
REMARK  153  A    between atoms: _373  and  _374
REMARK  154  A    between atoms: _373  and  _376
REMARK  155  A    between atoms: _376  and  _377
REMARK  156  A    between atoms: _380  and  _382
REMARK  157  A    between atoms: _382  and  _383
REMARK  158  A    between atoms: _385  and  _387
REMARK  159  A    between atoms: _387  and  _388
REMARK  160  A    between atoms: _390  and  _392
REMARK  161  A    between atoms: _392  and  _393
REMARK  162  A    between atoms: _392  and  _395
REMARK  163  A    between atoms: _395  and  _396
REMARK  164  A    between atoms: _399  and  _401
REMARK  165  A    between atoms: _401  and  _402
REMARK  166  A    between atoms: _404  and  _406
REMARK  167  A    between atoms: _406  and  _407
REMARK  168  A    between atoms: _409  and  _411
REMARK  169  A    between atoms: _411  and  _412
REMARK  170  A    between atoms: _411  and  _414
REMARK  171  A    between atoms: _414  and  _415
REMARK  172  A    between atoms: _421  and  _423
REMARK  173  A    between atoms: _423  and  _424
REMARK  174  A    between atoms: _423  and  _426
REMARK  175  A    between atoms: _426  and  _427
REMARK  176  A    between atoms: _431  and  _432
REMARK  177  A    between atoms: _437  and  _439
REMARK  178  A    between atoms: _439  and  _440
REMARK  179  A    between atoms: _439  and  _442
REMARK  180  A    between atoms: _445  and  _447
REMARK  181  A    between atoms: _447  and  _448
REMARK  182  A    between atoms: _447  and  _450
REMARK  183  A    between atoms: _450  and  _451
REMARK  184  A    between atoms: _456  and  _458
REMARK  185  A    between atoms: _458  and  _459
REMARK  186  A    between atoms: _458  and  _461
REMARK  187  A    between atoms: _461  and  _462
REMARK  188  A    between atoms: _465  and  _467
REMARK  189  A    between atoms: _467  and  _468
REMARK  190  A    between atoms: _467  and  _470
REMARK  191  A    between atoms: _470  and  _471
REMARK  192  A    between atoms: _474  and  _476
REMARK  193  A    between atoms: _476  and  _477
REMARK  194  A    between atoms: _479  and  _481
REMARK  195  A    between atoms: _481  and  _482
REMARK  196  A    between atoms: _481  and  _484
REMARK  197  A    between atoms: _484  and  _485
REMARK  198  A    between atoms: _485  and  _486
REMARK  199  A    between atoms: _486  and  _487
REMARK                            x       y       z     vdW  Elec       q    Type
REMARK                         _______ _______ _______ _____ _____    ______ ____
ROOT
ATOM      1  O   HOH     1      31.186   5.544  18.571  0.00  0.00    +0.000 OA
ENDROOT
TORSDOF 0
REMARK  Name = ../refined-set-2016/2q54/2q54_pocket.pdb
REMARK  199 active torsions:
REMARK  status: ('A' for Active; 'I' for Inactive)
REMARK    1  A    between atoms: _1  and  _3
REMARK    2  A    between atoms: _3  and  _4
REMARK    3  A    between atoms: _3  and  _6
REMARK    4  A    between atoms: _6  and  _7
REMARK    5  A    between atoms: _7  and  _8
REMARK    6  A    between atoms: _8  and  _9
REMARK    7  A    between atoms: _18  and  _20
REMARK    8  A    between atoms: _20  and  _21
REMARK    9  A    between atoms: _20  and  _23
REMARK   10  A    between atoms: _23  and  _24
REMARK   11  A    between atoms: _27  and  _29
REMARK   12  A    between atoms: _29  and  _30
REMARK   13  A    between atoms: _29  and  _32
REMARK   14  A    between atoms: _32  and  _33
REMARK   15  A    between atoms: _36  and  _38
REMARK   16  A    between atoms: _38  and  _39
REMARK   17  A    between atoms: _38  and  _41
REMARK   18  A    between atoms: _41  and  _42
REMARK   19  A    between atoms: _45  and  _47
REMARK   20  A    between atoms: _47  and  _48
REMARK   21  A    between atoms: _47  and  _50
REMARK   22  A    between atoms: _50  and  _51
REMARK   23  A    between atoms: _54  and  _56
REMARK   24  A    between atoms: _56  and  _57
REMARK   25  A    between atoms: _59  and  _61
REMARK   26  A    between atoms: _61  and  _62
REMARK   27  A    between atoms: _65  and  _67
REMARK   28  A    between atoms: _67  and  _68
REMARK   29  A    between atoms: _67  and  _70
REMARK   30  A    between atoms: _70  and  _71
REMARK   31  A    between atoms: _74  and  _76
REMARK   32  A    between atoms: _76  and  _77
REMARK   33  A    between atoms: _76  and  _79
REMARK   34  A    between atoms: _79  and  _80
REMARK   35  A    between atoms: _83  and  _85
REMARK   36  A    between atoms: _85  and  _86
REMARK   37  A    between atoms: _85  and  _88
REMARK   38  A    between atoms: _88  and  _89
REMARK   39  A    between atoms: _92  and  _94
REMARK   40  A    between atoms: _94  and  _95
REMARK   41  A    between atoms: _94  and  _97
REMARK   42  A    between atoms: _100  and  _102
REMARK   43  A    between atoms: _102  and  _103
REMARK   44  A    between atoms: _102  and  _105
REMARK   45  A    between atoms: _105  and  _106
REMARK   46  A    between atoms: _109  and  _111
REMARK   47  A    between atoms: _111  and  _112
REMARK   48  A    between atoms: _114  and  _116
REMARK   49  A    between atoms: _116  and  _117
REMARK   50  A    between atoms: _119  and  _121
REMARK   51  A    between atoms: _121  and  _122
REMARK   52  A    between atoms: _121  and  _124
REMARK   53  A    between atoms: _124  and  _125
REMARK   54  A    between atoms: _128  and  _130
REMARK   55  A    between atoms: _130  and  _131
REMARK   56  A    between atoms: _133  and  _135
REMARK   57  A    between atoms: _135  and  _136
REMARK   58  A    between atoms: _138  and  _140
REMARK   59  A    between atoms: _140  and  _141
REMARK   60  A    between atoms: _140  and  _143
REMARK   61  A    between atoms: _143  and  _144
REMARK   62  A    between atoms: _150  and  _152
REMARK   63  A    between atoms: _152  and  _153
REMARK   64  A    between atoms: _152  and  _155
REMARK   65  A    between atoms: _155  and  _156
REMARK   66  A    between atoms: _159  and  _161
REMARK   67  A    between atoms: _161  and  _162
REMARK   68  A    between atoms: _161  and  _164
REMARK   69  A    between atoms: _164  and  _165
REMARK   70  A    between atoms: _169  and  _170
REMARK   71  A    between atoms: _175  and  _177
REMARK   72  A    between atoms: _177  and  _178
REMARK   73  A    between atoms: _177  and  _180
REMARK   74  A    between atoms: _180  and  _181
REMARK   75  A    between atoms: _185  and  _186
REMARK   76  A    between atoms: _191  and  _193
REMARK   77  A    between atoms: _193  and  _194
REMARK   78  A    between atoms: _193  and  _196
REMARK   79  A    between atoms: _199  and  _201
REMARK   80  A    between atoms: _201  and  _202
REMARK   81  A    between atoms: _201  and  _204
REMARK   82  A    between atoms: _204  and  _205
REMARK   83  A    between atoms: _210  and  _212
REMARK   84  A    between atoms: _212  and  _213
REMARK   85  A    between atoms: _212  and  _215
REMARK   86  A    between atoms: _215  and  _216
REMARK   87  A    between atoms: _219  and  _221
REMARK   88  A    between atoms: _221  and  _222
REMARK   89  A    between atoms: _221  and  _224
REMARK   90  A    between atoms: _224  and  _225
REMARK   91  A    between atoms: _228  and  _230
REMARK   92  A    between atoms: _230  and  _231
REMARK   93  A    between atoms: _233  and  _235
REMARK   94  A    between atoms: _235  and  _236
REMARK   95  A    between atoms: _235  and  _238
REMARK   96  A    between atoms: _238  and  _239
REMARK   97  A    between atoms: _239  and  _240
REMARK   98  A    between atoms: _240  and  _241
REMARK   99  A    between atoms: _250  and  _252
REMARK  100  A    between atoms: _252  and  _253
REMARK  101  A    between atoms: _252  and  _255
REMARK  102  A    between atoms: _255  and  _256
REMARK  103  A    between atoms: _256  and  _257
REMARK  104  A    between atoms: _257  and  _258
REMARK  105  A    between atoms: _267  and  _269
REMARK  106  A    between atoms: _269  and  _270
REMARK  107  A    between atoms: _269  and  _272
REMARK  108  A    between atoms: _272  and  _273
REMARK  109  A    between atoms: _276  and  _278
REMARK  110  A    between atoms: _278  and  _279
REMARK  111  A    between atoms: _278  and  _281
REMARK  112  A    between atoms: _281  and  _282
REMARK  113  A    between atoms: _285  and  _287
REMARK  114  A    between atoms: _287  and  _288
REMARK  115  A    between atoms: _287  and  _290
REMARK  116  A    between atoms: _290  and  _291
REMARK  117  A    between atoms: _294  and  _296
REMARK  118  A    between atoms: _296  and  _297
REMARK  119  A    between atoms: _296  and  _299
REMARK  120  A    between atoms: _299  and  _300
REMARK  121  A    between atoms: _303  and  _305
REMARK  122  A    between atoms: _305  and  _306
REMARK  123  A    between atoms: _308  and  _310
REMARK  124  A    between atoms: _310  and  _311
REMARK  125  A    between atoms: _314  and  _316
REMARK  126  A    between atoms: _316  and  _317
REMARK  127  A    between atoms: _316  and  _319
REMARK  128  A    between atoms: _319  and  _320
REMARK  129  A    between atoms: _323  and  _325
REMARK  130  A    between atoms: _325  and  _326
REMARK  131  A    between atoms: _325  and  _328
REMARK  132  A    between atoms: _328  and  _329
REMARK  133  A    between atoms: _332  and  _334
REMARK  134  A    between atoms: _334  and  _335
REMARK  135  A    between atoms: _334  and  _337
REMARK  136  A    between atoms: _337  and  _338
REMARK  137  A    between atoms: _341  and  _343
REMARK  138  A    between atoms: _343  and  _344
REMARK  139  A    between atoms: _343  and  _346
REMARK  140  A    between atoms: _349  and  _351
REMARK  141  A    between atoms: _351  and  _352
REMARK  142  A    between atoms: _351  and  _354
REMARK  143  A    between atoms: _354  and  _355
REMARK  144  A    between atoms: _355  and  _356
REMARK  145  A    between atoms: _356  and  _357
REMARK  146  A    between atoms: _357  and  _358
REMARK  147  A    between atoms: _362  and  _364
REMARK  148  A    between atoms: _364  and  _365
REMARK  149  A    between atoms: _364  and  _367
REMARK  150  A    between atoms: _367  and  _368
REMARK  151  A    between atoms: _368  and  _369
REMARK  152  A    between atoms: _371  and  _373
REMARK  153  A    between atoms: _373  and  _374
REMARK  154  A    between atoms: _373  and  _376
REMARK  155  A    between atoms: _376  and  _377
REMARK  156  A    between atoms: _380  and  _382
REMARK  157  A    between atoms: _382  and  _383
REMARK  158  A    between atoms: _385  and  _387
REMARK  159  A    between atoms: _387  and  _388
REMARK  160  A    between atoms: _390  and  _392
REMARK  161  A    between atoms: _392  and  _393
REMARK  162  A    between atoms: _392  and  _395
REMARK  163  A    between atoms: _395  and  _396
REMARK  164  A    between atoms: _399  and  _401
REMARK  165  A    between atoms: _401  and  _402
REMARK  166  A    between atoms: _404  and  _406
REMARK  167  A    between atoms: _406  and  _407
REMARK  168  A    between atoms: _409  and  _411
REMARK  169  A    between atoms: _411  and  _412
REMARK  170  A    between atoms: _411  and  _414
REMARK  171  A    between atoms: _414  and  _415
REMARK  172  A    between atoms: _421  and  _423
REMARK  173  A    between atoms: _423  and  _424
REMARK  174  A    between atoms: _423  and  _426
REMARK  175  A    between atoms: _426  and  _427
REMARK  176  A    between atoms: _431  and  _432
REMARK  177  A    between atoms: _437  and  _439
REMARK  178  A    between atoms: _439  and  _440
REMARK  179  A    between atoms: _439  and  _442
REMARK  180  A    between atoms: _445  and  _447
REMARK  181  A    between atoms: _447  and  _448
REMARK  182  A    between atoms: _447  and  _450
REMARK  183  A    between atoms: _450  and  _451
REMARK  184  A    between atoms: _456  and  _458
REMARK  185  A    between atoms: _458  and  _459
REMARK  186  A    between atoms: _458  and  _461
REMARK  187  A    between atoms: _461  and  _462
REMARK  188  A    between atoms: _465  and  _467
REMARK  189  A    between atoms: _467  and  _468
REMARK  190  A    between atoms: _467  and  _470
REMARK  191  A    between atoms: _470  and  _471
REMARK  192  A    between atoms: _474  and  _476
REMARK  193  A    between atoms: _476  and  _477
REMARK  194  A    between atoms: _479  and  _481
REMARK  195  A    between atoms: _481  and  _482
REMARK  196  A    between atoms: _481  and  _484
REMARK  197  A    between atoms: _484  and  _485
REMARK  198  A    between atoms: _485  and  _486
REMARK  199  A    between atoms: _486  and  _487
REMARK                            x       y       z     vdW  Elec       q    Type
REMARK                         _______ _______ _______ _____ _____    ______ ____
ROOT
ATOM      1  O   HOH     1      25.333  -8.241  22.119  0.00  0.00    +0.000 OA
ENDROOT
TORSDOF 0
REMARK  Name = ../refined-set-2016/2q54/2q54_pocket.pdb
REMARK  199 active torsions:
REMARK  status: ('A' for Active; 'I' for Inactive)
REMARK    1  A    between atoms: _1  and  _3
REMARK    2  A    between atoms: _3  and  _4
REMARK    3  A    between atoms: _3  and  _6
REMARK    4  A    between atoms: _6  and  _7
REMARK    5  A    between atoms: _7  and  _8
REMARK    6  A    between atoms: _8  and  _9
REMARK    7  A    between atoms: _18  and  _20
REMARK    8  A    between atoms: _20  and  _21
REMARK    9  A    between atoms: _20  and  _23
REMARK   10  A    between atoms: _23  and  _24
REMARK   11  A    between atoms: _27  and  _29
REMARK   12  A    between atoms: _29  and  _30
REMARK   13  A    between atoms: _29  and  _32
REMARK   14  A    between atoms: _32  and  _33
REMARK   15  A    between atoms: _36  and  _38
REMARK   16  A    between atoms: _38  and  _39
REMARK   17  A    between atoms: _38  and  _41
REMARK   18  A    between atoms: _41  and  _42
REMARK   19  A    between atoms: _45  and  _47
REMARK   20  A    between atoms: _47  and  _48
REMARK   21  A    between atoms: _47  and  _50
REMARK   22  A    between atoms: _50  and  _51
REMARK   23  A    between atoms: _54  and  _56
REMARK   24  A    between atoms: _56  and  _57
REMARK   25  A    between atoms: _59  and  _61
REMARK   26  A    between atoms: _61  and  _62
REMARK   27  A    between atoms: _65  and  _67
REMARK   28  A    between atoms: _67  and  _68
REMARK   29  A    between atoms: _67  and  _70
REMARK   30  A    between atoms: _70  and  _71
REMARK   31  A    between atoms: _74  and  _76
REMARK   32  A    between atoms: _76  and  _77
REMARK   33  A    between atoms: _76  and  _79
REMARK   34  A    between atoms: _79  and  _80
REMARK   35  A    between atoms: _83  and  _85
REMARK   36  A    between atoms: _85  and  _86
REMARK   37  A    between atoms: _85  and  _88
REMARK   38  A    between atoms: _88  and  _89
REMARK   39  A    between atoms: _92  and  _94
REMARK   40  A    between atoms: _94  and  _95
REMARK   41  A    between atoms: _94  and  _97
REMARK   42  A    between atoms: _100  and  _102
REMARK   43  A    between atoms: _102  and  _103
REMARK   44  A    between atoms: _102  and  _105
REMARK   45  A    between atoms: _105  and  _106
REMARK   46  A    between atoms: _109  and  _111
REMARK   47  A    between atoms: _111  and  _112
REMARK   48  A    between atoms: _114  and  _116
REMARK   49  A    between atoms: _116  and  _117
REMARK   50  A    between atoms: _119  and  _121
REMARK   51  A    between atoms: _121  and  _122
REMARK   52  A    between atoms: _121  and  _124
REMARK   53  A    between atoms: _124  and  _125
REMARK   54  A    between atoms: _128  and  _130
REMARK   55  A    between atoms: _130  and  _131
REMARK   56  A    between atoms: _133  and  _135
REMARK   57  A    between atoms: _135  and  _136
REMARK   58  A    between atoms: _138  and  _140
REMARK   59  A    between atoms: _140  and  _141
REMARK   60  A    between atoms: _140  and  _143
REMARK   61  A    between atoms: _143  and  _144
REMARK   62  A    between atoms: _150  and  _152
REMARK   63  A    between atoms: _152  and  _153
REMARK   64  A    between atoms: _152  and  _155
REMARK   65  A    between atoms: _155  and  _156
REMARK   66  A    between atoms: _159  and  _161
REMARK   67  A    between atoms: _161  and  _162
REMARK   68  A    between atoms: _161  and  _164
REMARK   69  A    between atoms: _164  and  _165
REMARK   70  A    between atoms: _169  and  _170
REMARK   71  A    between atoms: _175  and  _177
REMARK   72  A    between atoms: _177  and  _178
REMARK   73  A    between atoms: _177  and  _180
REMARK   74  A    between atoms: _180  and  _181
REMARK   75  A    between atoms: _185  and  _186
REMARK   76  A    between atoms: _191  and  _193
REMARK   77  A    between atoms: _193  and  _194
REMARK   78  A    between atoms: _193  and  _196
REMARK   79  A    between atoms: _199  and  _201
REMARK   80  A    between atoms: _201  and  _202
REMARK   81  A    between atoms: _201  and  _204
REMARK   82  A    between atoms: _204  and  _205
REMARK   83  A    between atoms: _210  and  _212
REMARK   84  A    between atoms: _212  and  _213
REMARK   85  A    between atoms: _212  and  _215
REMARK   86  A    between atoms: _215  and  _216
REMARK   87  A    between atoms: _219  and  _221
REMARK   88  A    between atoms: _221  and  _222
REMARK   89  A    between atoms: _221  and  _224
REMARK   90  A    between atoms: _224  and  _225
REMARK   91  A    between atoms: _228  and  _230
REMARK   92  A    between atoms: _230  and  _231
REMARK   93  A    between atoms: _233  and  _235
REMARK   94  A    between atoms: _235  and  _236
REMARK   95  A    between atoms: _235  and  _238
REMARK   96  A    between atoms: _238  and  _239
REMARK   97  A    between atoms: _239  and  _240
REMARK   98  A    between atoms: _240  and  _241
REMARK   99  A    between atoms: _250  and  _252
REMARK  100  A    between atoms: _252  and  _253
REMARK  101  A    between atoms: _252  and  _255
REMARK  102  A    between atoms: _255  and  _256
REMARK  103  A    between atoms: _256  and  _257
REMARK  104  A    between atoms: _257  and  _258
REMARK  105  A    between atoms: _267  and  _269
REMARK  106  A    between atoms: _269  and  _270
REMARK  107  A    between atoms: _269  and  _272
REMARK  108  A    between atoms: _272  and  _273
REMARK  109  A    between atoms: _276  and  _278
REMARK  110  A    between atoms: _278  and  _279
REMARK  111  A    between atoms: _278  and  _281
REMARK  112  A    between atoms: _281  and  _282
REMARK  113  A    between atoms: _285  and  _287
REMARK  114  A    between atoms: _287  and  _288
REMARK  115  A    between atoms: _287  and  _290
REMARK  116  A    between atoms: _290  and  _291
REMARK  117  A    between atoms: _294  and  _296
REMARK  118  A    between atoms: _296  and  _297
REMARK  119  A    between atoms: _296  and  _299
REMARK  120  A    between atoms: _299  and  _300
REMARK  121  A    between atoms: _303  and  _305
REMARK  122  A    between atoms: _305  and  _306
REMARK  123  A    between atoms: _308  and  _310
REMARK  124  A    between atoms: _310  and  _311
REMARK  125  A    between atoms: _314  and  _316
REMARK  126  A    between atoms: _316  and  _317
REMARK  127  A    between atoms: _316  and  _319
REMARK  128  A    between atoms: _319  and  _320
REMARK  129  A    between atoms: _323  and  _325
REMARK  130  A    between atoms: _325  and  _326
REMARK  131  A    between atoms: _325  and  _328
REMARK  132  A    between atoms: _328  and  _329
REMARK  133  A    between atoms: _332  and  _334
REMARK  134  A    between atoms: _334  and  _335
REMARK  135  A    between atoms: _334  and  _337
REMARK  136  A    between atoms: _337  and  _338
REMARK  137  A    between atoms: _341  and  _343
REMARK  138  A    between atoms: _343  and  _344
REMARK  139  A    between atoms: _343  and  _346
REMARK  140  A    between atoms: _349  and  _351
REMARK  141  A    between atoms: _351  and  _352
REMARK  142  A    between atoms: _351  and  _354
REMARK  143  A    between atoms: _354  and  _355
REMARK  144  A    between atoms: _355  and  _356
REMARK  145  A    between atoms: _356  and  _357
REMARK  146  A    between atoms: _357  and  _358
REMARK  147  A    between atoms: _362  and  _364
REMARK  148  A    between atoms: _364  and  _365
REMARK  149  A    between atoms: _364  and  _367
REMARK  150  A    between atoms: _367  and  _368
REMARK  151  A    between atoms: _368  and  _369
REMARK  152  A    between atoms: _371  and  _373
REMARK  153  A    between atoms: _373  and  _374
REMARK  154  A    between atoms: _373  and  _376
REMARK  155  A    between atoms: _376  and  _377
REMARK  156  A    between atoms: _380  and  _382
REMARK  157  A    between atoms: _382  and  _383
REMARK  158  A    between atoms: _385  and  _387
REMARK  159  A    between atoms: _387  and  _388
REMARK  160  A    between atoms: _390  and  _392
REMARK  161  A    between atoms: _392  and  _393
REMARK  162  A    between atoms: _392  and  _395
REMARK  163  A    between atoms: _395  and  _396
REMARK  164  A    between atoms: _399  and  _401
REMARK  165  A    between atoms: _401  and  _402
REMARK  166  A    between atoms: _404  and  _406
REMARK  167  A    between atoms: _406  and  _407
REMARK  168  A    between atoms: _409  and  _411
REMARK  169  A    between atoms: _411  and  _412
REMARK  170  A    between atoms: _411  and  _414
REMARK  171  A    between atoms: _414  and  _415
REMARK  172  A    between atoms: _421  and  _423
REMARK  173  A    between atoms: _423  and  _424
REMARK  174  A    between atoms: _423  and  _426
REMARK  175  A    between atoms: _426  and  _427
REMARK  176  A    between atoms: _431  and  _432
REMARK  177  A    between atoms: _437  and  _439
REMARK  178  A    between atoms: _439  and  _440
REMARK  179  A    between atoms: _439  and  _442
REMARK  180  A    between atoms: _445  and  _447
REMARK  181  A    between atoms: _447  and  _448
REMARK  182  A    between atoms: _447  and  _450
REMARK  183  A    between atoms: _450  and  _451
REMARK  184  A    between atoms: _456  and  _458
REMARK  185  A    between atoms: _458  and  _459
REMARK  186  A    between atoms: _458  and  _461
REMARK  187  A    between atoms: _461  and  _462
REMARK  188  A    between atoms: _465  and  _467
REMARK  189  A    between atoms: _467  and  _468
REMARK  190  A    between atoms: _467  and  _470
REMARK  191  A    between atoms: _470  and  _471
REMARK  192  A    between atoms: _474  and  _476
REMARK  193  A    between atoms: _476  and  _477
REMARK  194  A    between atoms: _479  and  _481
REMARK  195  A    between atoms: _481  and  _482
REMARK  196  A    between atoms: _481  and  _484
REMARK  197  A    between atoms: _484  and  _485
REMARK  198  A    between atoms: _485  and  _486
REMARK  199  A    between atoms: _486  and  _487
REMARK                            x       y       z     vdW  Elec       q    Type
REMARK                         _______ _______ _______ _____ _____    ______ ____
ROOT
ATOM      1  O   HOH     1      21.468  10.049  21.322  0.00  0.00    +0.000 OA
ENDROOT
TORSDOF 0
REMARK  Name = ../refined-set-2016/2q54/2q54_pocket.pdb
REMARK  199 active torsions:
REMARK  status: ('A' for Active; 'I' for Inactive)
REMARK    1  A    between atoms: _1  and  _3
REMARK    2  A    between atoms: _3  and  _4
REMARK    3  A    between atoms: _3  and  _6
REMARK    4  A    between atoms: _6  and  _7
REMARK    5  A    between atoms: _7  and  _8
REMARK    6  A    between atoms: _8  and  _9
REMARK    7  A    between atoms: _18  and  _20
REMARK    8  A    between atoms: _20  and  _21
REMARK    9  A    between atoms: _20  and  _23
REMARK   10  A    between atoms: _23  and  _24
REMARK   11  A    between atoms: _27  and  _29
REMARK   12  A    between atoms: _29  and  _30
REMARK   13  A    between atoms: _29  and  _32
REMARK   14  A    between atoms: _32  and  _33
REMARK   15  A    between atoms: _36  and  _38
REMARK   16  A    between atoms: _38  and  _39
REMARK   17  A    between atoms: _38  and  _41
REMARK   18  A    between atoms: _41  and  _42
REMARK   19  A    between atoms: _45  and  _47
REMARK   20  A    between atoms: _47  and  _48
REMARK   21  A    between atoms: _47  and  _50
REMARK   22  A    between atoms: _50  and  _51
REMARK   23  A    between atoms: _54  and  _56
REMARK   24  A    between atoms: _56  and  _57
REMARK   25  A    between atoms: _59  and  _61
REMARK   26  A    between atoms: _61  and  _62
REMARK   27  A    between atoms: _65  and  _67
REMARK   28  A    between atoms: _67  and  _68
REMARK   29  A    between atoms: _67  and  _70
REMARK   30  A    between atoms: _70  and  _71
REMARK   31  A    between atoms: _74  and  _76
REMARK   32  A    between atoms: _76  and  _77
REMARK   33  A    between atoms: _76  and  _79
REMARK   34  A    between atoms: _79  and  _80
REMARK   35  A    between atoms: _83  and  _85
REMARK   36  A    between atoms: _85  and  _86
REMARK   37  A    between atoms: _85  and  _88
REMARK   38  A    between atoms: _88  and  _89
REMARK   39  A    between atoms: _92  and  _94
REMARK   40  A    between atoms: _94  and  _95
REMARK   41  A    between atoms: _94  and  _97
REMARK   42  A    between atoms: _100  and  _102
REMARK   43  A    between atoms: _102  and  _103
REMARK   44  A    between atoms: _102  and  _105
REMARK   45  A    between atoms: _105  and  _106
REMARK   46  A    between atoms: _109  and  _111
REMARK   47  A    between atoms: _111  and  _112
REMARK   48  A    between atoms: _114  and  _116
REMARK   49  A    between atoms: _116  and  _117
REMARK   50  A    between atoms: _119  and  _121
REMARK   51  A    between atoms: _121  and  _122
REMARK   52  A    between atoms: _121  and  _124
REMARK   53  A    between atoms: _124  and  _125
REMARK   54  A    between atoms: _128  and  _130
REMARK   55  A    between atoms: _130  and  _131
REMARK   56  A    between atoms: _133  and  _135
REMARK   57  A    between atoms: _135  and  _136
REMARK   58  A    between atoms: _138  and  _140
REMARK   59  A    between atoms: _140  and  _141
REMARK   60  A    between atoms: _140  and  _143
REMARK   61  A    between atoms: _143  and  _144
REMARK   62  A    between atoms: _150  and  _152
REMARK   63  A    between atoms: _152  and  _153
REMARK   64  A    between atoms: _152  and  _155
REMARK   65  A    between atoms: _155  and  _156
REMARK   66  A    between atoms: _159  and  _161
REMARK   67  A    between atoms: _161  and  _162
REMARK   68  A    between atoms: _161  and  _164
REMARK   69  A    between atoms: _164  and  _165
REMARK   70  A    between atoms: _169  and  _170
REMARK   71  A    between atoms: _175  and  _177
REMARK   72  A    between atoms: _177  and  _178
REMARK   73  A    between atoms: _177  and  _180
REMARK   74  A    between atoms: _180  and  _181
REMARK   75  A    between atoms: _185  and  _186
REMARK   76  A    between atoms: _191  and  _193
REMARK   77  A    between atoms: _193  and  _194
REMARK   78  A    between atoms: _193  and  _196
REMARK   79  A    between atoms: _199  and  _201
REMARK   80  A    between atoms: _201  and  _202
REMARK   81  A    between atoms: _201  and  _204
REMARK   82  A    between atoms: _204  and  _205
REMARK   83  A    between atoms: _210  and  _212
REMARK   84  A    between atoms: _212  and  _213
REMARK   85  A    between atoms: _212  and  _215
REMARK   86  A    between atoms: _215  and  _216
REMARK   87  A    between atoms: _219  and  _221
REMARK   88  A    between atoms: _221  and  _222
REMARK   89  A    between atoms: _221  and  _224
REMARK   90  A    between atoms: _224  and  _225
REMARK   91  A    between atoms: _228  and  _230
REMARK   92  A    between atoms: _230  and  _231
REMARK   93  A    between atoms: _233  and  _235
REMARK   94  A    between atoms: _235  and  _236
REMARK   95  A    between atoms: _235  and  _238
REMARK   96  A    between atoms: _238  and  _239
REMARK   97  A    between atoms: _239  and  _240
REMARK   98  A    between atoms: _240  and  _241
REMARK   99  A    between atoms: _250  and  _252
REMARK  100  A    between atoms: _252  and  _253
REMARK  101  A    between atoms: _252  and  _255
REMARK  102  A    between atoms: _255  and  _256
REMARK  103  A    between atoms: _256  and  _257
REMARK  104  A    between atoms: _257  and  _258
REMARK  105  A    between atoms: _267  and  _269
REMARK  106  A    between atoms: _269  and  _270
REMARK  107  A    between atoms: _269  and  _272
REMARK  108  A    between atoms: _272  and  _273
REMARK  109  A    between atoms: _276  and  _278
REMARK  110  A    between atoms: _278  and  _279
REMARK  111  A    between atoms: _278  and  _281
REMARK  112  A    between atoms: _281  and  _282
REMARK  113  A    between atoms: _285  and  _287
REMARK  114  A    between atoms: _287  and  _288
REMARK  115  A    between atoms: _287  and  _290
REMARK  116  A    between atoms: _290  and  _291
REMARK  117  A    between atoms: _294  and  _296
REMARK  118  A    between atoms: _296  and  _297
REMARK  119  A    between atoms: _296  and  _299
REMARK  120  A    between atoms: _299  and  _300
REMARK  121  A    between atoms: _303  and  _305
REMARK  122  A    between atoms: _305  and  _306
REMARK  123  A    between atoms: _308  and  _310
REMARK  124  A    between atoms: _310  and  _311
REMARK  125  A    between atoms: _314  and  _316
REMARK  126  A    between atoms: _316  and  _317
REMARK  127  A    between atoms: _316  and  _319
REMARK  128  A    between atoms: _319  and  _320
REMARK  129  A    between atoms: _323  and  _325
REMARK  130  A    between atoms: _325  and  _326
REMARK  131  A    between atoms: _325  and  _328
REMARK  132  A    between atoms: _328  and  _329
REMARK  133  A    between atoms: _332  and  _334
REMARK  134  A    between atoms: _334  and  _335
REMARK  135  A    between atoms: _334  and  _337
REMARK  136  A    between atoms: _337  and  _338
REMARK  137  A    between atoms: _341  and  _343
REMARK  138  A    between atoms: _343  and  _344
REMARK  139  A    between atoms: _343  and  _346
REMARK  140  A    between atoms: _349  and  _351
REMARK  141  A    between atoms: _351  and  _352
REMARK  142  A    between atoms: _351  and  _354
REMARK  143  A    between atoms: _354  and  _355
REMARK  144  A    between atoms: _355  and  _356
REMARK  145  A    between atoms: _356  and  _357
REMARK  146  A    between atoms: _357  and  _358
REMARK  147  A    between atoms: _362  and  _364
REMARK  148  A    between atoms: _364  and  _365
REMARK  149  A    between atoms: _364  and  _367
REMARK  150  A    between atoms: _367  and  _368
REMARK  151  A    between atoms: _368  and  _369
REMARK  152  A    between atoms: _371  and  _373
REMARK  153  A    between atoms: _373  and  _374
REMARK  154  A    between atoms: _373  and  _376
REMARK  155  A    between atoms: _376  and  _377
REMARK  156  A    between atoms: _380  and  _382
REMARK  157  A    between atoms: _382  and  _383
REMARK  158  A    between atoms: _385  and  _387
REMARK  159  A    between atoms: _387  and  _388
REMARK  160  A    between atoms: _390  and  _392
REMARK  161  A    between atoms: _392  and  _393
REMARK  162  A    between atoms: _392  and  _395
REMARK  163  A    between atoms: _395  and  _396
REMARK  164  A    between atoms: _399  and  _401
REMARK  165  A    between atoms: _401  and  _402
REMARK  166  A    between atoms: _404  and  _406
REMARK  167  A    between atoms: _406  and  _407
REMARK  168  A    between atoms: _409  and  _411
REMARK  169  A    between atoms: _411  and  _412
REMARK  170  A    between atoms: _411  and  _414
REMARK  171  A    between atoms: _414  and  _415
REMARK  172  A    between atoms: _421  and  _423
REMARK  173  A    between atoms: _423  and  _424
REMARK  174  A    between atoms: _423  and  _426
REMARK  175  A    between atoms: _426  and  _427
REMARK  176  A    between atoms: _431  and  _432
REMARK  177  A    between atoms: _437  and  _439
REMARK  178  A    between atoms: _439  and  _440
REMARK  179  A    between atoms: _439  and  _442
REMARK  180  A    between atoms: _445  and  _447
REMARK  181  A    between atoms: _447  and  _448
REMARK  182  A    between atoms: _447  and  _450
REMARK  183  A    between atoms: _450  and  _451
REMARK  184  A    between atoms: _456  and  _458
REMARK  185  A    between atoms: _458  and  _459
REMARK  186  A    between atoms: _458  and  _461
REMARK  187  A    between atoms: _461  and  _462
REMARK  188  A    between atoms: _465  and  _467
REMARK  189  A    between atoms: _467  and  _468
REMARK  190  A    between atoms: _467  and  _470
REMARK  191  A    between atoms: _470  and  _471
REMARK  192  A    between atoms: _474  and  _476
REMARK  193  A    between atoms: _476  and  _477
REMARK  194  A    between atoms: _479  and  _481
REMARK  195  A    between atoms: _481  and  _482
REMARK  196  A    between atoms: _481  and  _484
REMARK  197  A    between atoms: _484  and  _485
REMARK  198  A    between atoms: _485  and  _486
REMARK  199  A    between atoms: _486  and  _487
REMARK                            x       y       z     vdW  Elec       q    Type
REMARK                         _______ _______ _______ _____ _____    ______ ____
ROOT
ATOM      1  O   HOH     1      15.338  -4.363  25.042  0.00  0.00    +0.000 OA
ENDROOT
TORSDOF 0
REMARK  Name = ../refined-set-2016/2q54/2q54_pocket.pdb
REMARK  199 active torsions:
REMARK  status: ('A' for Active; 'I' for Inactive)
REMARK    1  A    between atoms: _1  and  _3
REMARK    2  A    between atoms: _3  and  _4
REMARK    3  A    between atoms: _3  and  _6
REMARK    4  A    between atoms: _6  and  _7
REMARK    5  A    between atoms: _7  and  _8
REMARK    6  A    between atoms: _8  and  _9
REMARK    7  A    between atoms: _18  and  _20
REMARK    8  A    between atoms: _20  and  _21
REMARK    9  A    between atoms: _20  and  _23
REMARK   10  A    between atoms: _23  and  _24
REMARK   11  A    between atoms: _27  and  _29
REMARK   12  A    between atoms: _29  and  _30
REMARK   13  A    between atoms: _29  and  _32
REMARK   14  A    between atoms: _32  and  _33
REMARK   15  A    between atoms: _36  and  _38
REMARK   16  A    between atoms: _38  and  _39
REMARK   17  A    between atoms: _38  and  _41
REMARK   18  A    between atoms: _41  and  _42
REMARK   19  A    between atoms: _45  and  _47
REMARK   20  A    between atoms: _47  and  _48
REMARK   21  A    between atoms: _47  and  _50
REMARK   22  A    between atoms: _50  and  _51
REMARK   23  A    between atoms: _54  and  _56
REMARK   24  A    between atoms: _56  and  _57
REMARK   25  A    between atoms: _59  and  _61
REMARK   26  A    between atoms: _61  and  _62
REMARK   27  A    between atoms: _65  and  _67
REMARK   28  A    between atoms: _67  and  _68
REMARK   29  A    between atoms: _67  and  _70
REMARK   30  A    between atoms: _70  and  _71
REMARK   31  A    between atoms: _74  and  _76
REMARK   32  A    between atoms: _76  and  _77
REMARK   33  A    between atoms: _76  and  _79
REMARK   34  A    between atoms: _79  and  _80
REMARK   35  A    between atoms: _83  and  _85
REMARK   36  A    between atoms: _85  and  _86
REMARK   37  A    between atoms: _85  and  _88
REMARK   38  A    between atoms: _88  and  _89
REMARK   39  A    between atoms: _92  and  _94
REMARK   40  A    between atoms: _94  and  _95
REMARK   41  A    between atoms: _94  and  _97
REMARK   42  A    between atoms: _100  and  _102
REMARK   43  A    between atoms: _102  and  _103
REMARK   44  A    between atoms: _102  and  _105
REMARK   45  A    between atoms: _105  and  _106
REMARK   46  A    between atoms: _109  and  _111
REMARK   47  A    between atoms: _111  and  _112
REMARK   48  A    between atoms: _114  and  _116
REMARK   49  A    between atoms: _116  and  _117
REMARK   50  A    between atoms: _119  and  _121
REMARK   51  A    between atoms: _121  and  _122
REMARK   52  A    between atoms: _121  and  _124
REMARK   53  A    between atoms: _124  and  _125
REMARK   54  A    between atoms: _128  and  _130
REMARK   55  A    between atoms: _130  and  _131
REMARK   56  A    between atoms: _133  and  _135
REMARK   57  A    between atoms: _135  and  _136
REMARK   58  A    between atoms: _138  and  _140
REMARK   59  A    between atoms: _140  and  _141
REMARK   60  A    between atoms: _140  and  _143
REMARK   61  A    between atoms: _143  and  _144
REMARK   62  A    between atoms: _150  and  _152
REMARK   63  A    between atoms: _152  and  _153
REMARK   64  A    between atoms: _152  and  _155
REMARK   65  A    between atoms: _155  and  _156
REMARK   66  A    between atoms: _159  and  _161
REMARK   67  A    between atoms: _161  and  _162
REMARK   68  A    between atoms: _161  and  _164
REMARK   69  A    between atoms: _164  and  _165
REMARK   70  A    between atoms: _169  and  _170
REMARK   71  A    between atoms: _175  and  _177
REMARK   72  A    between atoms: _177  and  _178
REMARK   73  A    between atoms: _177  and  _180
REMARK   74  A    between atoms: _180  and  _181
REMARK   75  A    between atoms: _185  and  _186
REMARK   76  A    between atoms: _191  and  _193
REMARK   77  A    between atoms: _193  and  _194
REMARK   78  A    between atoms: _193  and  _196
REMARK   79  A    between atoms: _199  and  _201
REMARK   80  A    between atoms: _201  and  _202
REMARK   81  A    between atoms: _201  and  _204
REMARK   82  A    between atoms: _204  and  _205
REMARK   83  A    between atoms: _210  and  _212
REMARK   84  A    between atoms: _212  and  _213
REMARK   85  A    between atoms: _212  and  _215
REMARK   86  A    between atoms: _215  and  _216
REMARK   87  A    between atoms: _219  and  _221
REMARK   88  A    between atoms: _221  and  _222
REMARK   89  A    between atoms: _221  and  _224
REMARK   90  A    between atoms: _224  and  _225
REMARK   91  A    between atoms: _228  and  _230
REMARK   92  A    between atoms: _230  and  _231
REMARK   93  A    between atoms: _233  and  _235
REMARK   94  A    between atoms: _235  and  _236
REMARK   95  A    between atoms: _235  and  _238
REMARK   96  A    between atoms: _238  and  _239
REMARK   97  A    between atoms: _239  and  _240
REMARK   98  A    between atoms: _240  and  _241
REMARK   99  A    between atoms: _250  and  _252
REMARK  100  A    between atoms: _252  and  _253
REMARK  101  A    between atoms: _252  and  _255
REMARK  102  A    between atoms: _255  and  _256
REMARK  103  A    between atoms: _256  and  _257
REMARK  104  A    between atoms: _257  and  _258
REMARK  105  A    between atoms: _267  and  _269
REMARK  106  A    between atoms: _269  and  _270
REMARK  107  A    between atoms: _269  and  _272
REMARK  108  A    between atoms: _272  and  _273
REMARK  109  A    between atoms: _276  and  _278
REMARK  110  A    between atoms: _278  and  _279
REMARK  111  A    between atoms: _278  and  _281
REMARK  112  A    between atoms: _281  and  _282
REMARK  113  A    between atoms: _285  and  _287
REMARK  114  A    between atoms: _287  and  _288
REMARK  115  A    between atoms: _287  and  _290
REMARK  116  A    between atoms: _290  and  _291
REMARK  117  A    between atoms: _294  and  _296
REMARK  118  A    between atoms: _296  and  _297
REMARK  119  A    between atoms: _296  and  _299
REMARK  120  A    between atoms: _299  and  _300
REMARK  121  A    between atoms: _303  and  _305
REMARK  122  A    between atoms: _305  and  _306
REMARK  123  A    between atoms: _308  and  _310
REMARK  124  A    between atoms: _310  and  _311
REMARK  125  A    between atoms: _314  and  _316
REMARK  126  A    between atoms: _316  and  _317
REMARK  127  A    between atoms: _316  and  _319
REMARK  128  A    between atoms: _319  and  _320
REMARK  129  A    between atoms: _323  and  _325
REMARK  130  A    between atoms: _325  and  _326
REMARK  131  A    between atoms: _325  and  _328
REMARK  132  A    between atoms: _328  and  _329
REMARK  133  A    between atoms: _332  and  _334
REMARK  134  A    between atoms: _334  and  _335
REMARK  135  A    between atoms: _334  and  _337
REMARK  136  A    between atoms: _337  and  _338
REMARK  137  A    between atoms: _341  and  _343
REMARK  138  A    between atoms: _343  and  _344
REMARK  139  A    between atoms: _343  and  _346
REMARK  140  A    between atoms: _349  and  _351
REMARK  141  A    between atoms: _351  and  _352
REMARK  142  A    between atoms: _351  and  _354
REMARK  143  A    between atoms: _354  and  _355
REMARK  144  A    between atoms: _355  and  _356
REMARK  145  A    between atoms: _356  and  _357
REMARK  146  A    between atoms: _357  and  _358
REMARK  147  A    between atoms: _362  and  _364
REMARK  148  A    between atoms: _364  and  _365
REMARK  149  A    between atoms: _364  and  _367
REMARK  150  A    between atoms: _367  and  _368
REMARK  151  A    between atoms: _368  and  _369
REMARK  152  A    between atoms: _371  and  _373
REMARK  153  A    between atoms: _373  and  _374
REMARK  154  A    between atoms: _373  and  _376
REMARK  155  A    between atoms: _376  and  _377
REMARK  156  A    between atoms: _380  and  _382
REMARK  157  A    between atoms: _382  and  _383
REMARK  158  A    between atoms: _385  and  _387
REMARK  159  A    between atoms: _387  and  _388
REMARK  160  A    between atoms: _390  and  _392
REMARK  161  A    between atoms: _392  and  _393
REMARK  162  A    between atoms: _392  and  _395
REMARK  163  A    between atoms: _395  and  _396
REMARK  164  A    between atoms: _399  and  _401
REMARK  165  A    between atoms: _401  and  _402
REMARK  166  A    between atoms: _404  and  _406
REMARK  167  A    between atoms: _406  and  _407
REMARK  168  A    between atoms: _409  and  _411
REMARK  169  A    between atoms: _411  and  _412
REMARK  170  A    between atoms: _411  and  _414
REMARK  171  A    between atoms: _414  and  _415
REMARK  172  A    between atoms: _421  and  _423
REMARK  173  A    between atoms: _423  and  _424
REMARK  174  A    between atoms: _423  and  _426
REMARK  175  A    between atoms: _426  and  _427
REMARK  176  A    between atoms: _431  and  _432
REMARK  177  A    between atoms: _437  and  _439
REMARK  178  A    between atoms: _439  and  _440
REMARK  179  A    between atoms: _439  and  _442
REMARK  180  A    between atoms: _445  and  _447
REMARK  181  A    between atoms: _447  and  _448
REMARK  182  A    between atoms: _447  and  _450
REMARK  183  A    between atoms: _450  and  _451
REMARK  184  A    between atoms: _456  and  _458
REMARK  185  A    between atoms: _458  and  _459
REMARK  186  A    between atoms: _458  and  _461
REMARK  187  A    between atoms: _461  and  _462
REMARK  188  A    between atoms: _465  and  _467
REMARK  189  A    between atoms: _467  and  _468
REMARK  190  A    between atoms: _467  and  _470
REMARK  191  A    between atoms: _470  and  _471
REMARK  192  A    between atoms: _474  and  _476
REMARK  193  A    between atoms: _476  and  _477
REMARK  194  A    between atoms: _479  and  _481
REMARK  195  A    between atoms: _481  and  _482
REMARK  196  A    between atoms: _481  and  _484
REMARK  197  A    between atoms: _484  and  _485
REMARK  198  A    between atoms: _485  and  _486
REMARK  199  A    between atoms: _486  and  _487
REMARK                            x       y       z     vdW  Elec       q    Type
REMARK                         _______ _______ _______ _____ _____    ______ ____
ROOT
ATOM      1  O   HOH     1      26.186  10.268  17.311  0.00  0.00    +0.000 OA
ENDROOT
TORSDOF 0
REMARK  Name = ../refined-set-2016/2q54/2q54_pocket.pdb
REMARK  199 active torsions:
REMARK  status: ('A' for Active; 'I' for Inactive)
REMARK    1  A    between atoms: _1  and  _3
REMARK    2  A    between atoms: _3  and  _4
REMARK    3  A    between atoms: _3  and  _6
REMARK    4  A    between atoms: _6  and  _7
REMARK    5  A    between atoms: _7  and  _8
REMARK    6  A    between atoms: _8  and  _9
REMARK    7  A    between atoms: _18  and  _20
REMARK    8  A    between atoms: _20  and  _21
REMARK    9  A    between atoms: _20  and  _23
REMARK   10  A    between atoms: _23  and  _24
REMARK   11  A    between atoms: _27  and  _29
REMARK   12  A    between atoms: _29  and  _30
REMARK   13  A    between atoms: _29  and  _32
REMARK   14  A    between atoms: _32  and  _33
REMARK   15  A    between atoms: _36  and  _38
REMARK   16  A    between atoms: _38  and  _39
REMARK   17  A    between atoms: _38  and  _41
REMARK   18  A    between atoms: _41  and  _42
REMARK   19  A    between atoms: _45  and  _47
REMARK   20  A    between atoms: _47  and  _48
REMARK   21  A    between atoms: _47  and  _50
REMARK   22  A    between atoms: _50  and  _51
REMARK   23  A    between atoms: _54  and  _56
REMARK   24  A    between atoms: _56  and  _57
REMARK   25  A    between atoms: _59  and  _61
REMARK   26  A    between atoms: _61  and  _62
REMARK   27  A    between atoms: _65  and  _67
REMARK   28  A    between atoms: _67  and  _68
REMARK   29  A    between atoms: _67  and  _70
REMARK   30  A    between atoms: _70  and  _71
REMARK   31  A    between atoms: _74  and  _76
REMARK   32  A    between atoms: _76  and  _77
REMARK   33  A    between atoms: _76  and  _79
REMARK   34  A    between atoms: _79  and  _80
REMARK   35  A    between atoms: _83  and  _85
REMARK   36  A    between atoms: _85  and  _86
REMARK   37  A    between atoms: _85  and  _88
REMARK   38  A    between atoms: _88  and  _89
REMARK   39  A    between atoms: _92  and  _94
REMARK   40  A    between atoms: _94  and  _95
REMARK   41  A    between atoms: _94  and  _97
REMARK   42  A    between atoms: _100  and  _102
REMARK   43  A    between atoms: _102  and  _103
REMARK   44  A    between atoms: _102  and  _105
REMARK   45  A    between atoms: _105  and  _106
REMARK   46  A    between atoms: _109  and  _111
REMARK   47  A    between atoms: _111  and  _112
REMARK   48  A    between atoms: _114  and  _116
REMARK   49  A    between atoms: _116  and  _117
REMARK   50  A    between atoms: _119  and  _121
REMARK   51  A    between atoms: _121  and  _122
REMARK   52  A    between atoms: _121  and  _124
REMARK   53  A    between atoms: _124  and  _125
REMARK   54  A    between atoms: _128  and  _130
REMARK   55  A    between atoms: _130  and  _131
REMARK   56  A    between atoms: _133  and  _135
REMARK   57  A    between atoms: _135  and  _136
REMARK   58  A    between atoms: _138  and  _140
REMARK   59  A    between atoms: _140  and  _141
REMARK   60  A    between atoms: _140  and  _143
REMARK   61  A    between atoms: _143  and  _144
REMARK   62  A    between atoms: _150  and  _152
REMARK   63  A    between atoms: _152  and  _153
REMARK   64  A    between atoms: _152  and  _155
REMARK   65  A    between atoms: _155  and  _156
REMARK   66  A    between atoms: _159  and  _161
REMARK   67  A    between atoms: _161  and  _162
REMARK   68  A    between atoms: _161  and  _164
REMARK   69  A    between atoms: _164  and  _165
REMARK   70  A    between atoms: _169  and  _170
REMARK   71  A    between atoms: _175  and  _177
REMARK   72  A    between atoms: _177  and  _178
REMARK   73  A    between atoms: _177  and  _180
REMARK   74  A    between atoms: _180  and  _181
REMARK   75  A    between atoms: _185  and  _186
REMARK   76  A    between atoms: _191  and  _193
REMARK   77  A    between atoms: _193  and  _194
REMARK   78  A    between atoms: _193  and  _196
REMARK   79  A    between atoms: _199  and  _201
REMARK   80  A    between atoms: _201  and  _202
REMARK   81  A    between atoms: _201  and  _204
REMARK   82  A    between atoms: _204  and  _205
REMARK   83  A    between atoms: _210  and  _212
REMARK   84  A    between atoms: _212  and  _213
REMARK   85  A    between atoms: _212  and  _215
REMARK   86  A    between atoms: _215  and  _216
REMARK   87  A    between atoms: _219  and  _221
REMARK   88  A    between atoms: _221  and  _222
REMARK   89  A    between atoms: _221  and  _224
REMARK   90  A    between atoms: _224  and  _225
REMARK   91  A    between atoms: _228  and  _230
REMARK   92  A    between atoms: _230  and  _231
REMARK   93  A    between atoms: _233  and  _235
REMARK   94  A    between atoms: _235  and  _236
REMARK   95  A    between atoms: _235  and  _238
REMARK   96  A    between atoms: _238  and  _239
REMARK   97  A    between atoms: _239  and  _240
REMARK   98  A    between atoms: _240  and  _241
REMARK   99  A    between atoms: _250  and  _252
REMARK  100  A    between atoms: _252  and  _253
REMARK  101  A    between atoms: _252  and  _255
REMARK  102  A    between atoms: _255  and  _256
REMARK  103  A    between atoms: _256  and  _257
REMARK  104  A    between atoms: _257  and  _258
REMARK  105  A    between atoms: _267  and  _269
REMARK  106  A    between atoms: _269  and  _270
REMARK  107  A    between atoms: _269  and  _272
REMARK  108  A    between atoms: _272  and  _273
REMARK  109  A    between atoms: _276  and  _278
REMARK  110  A    between atoms: _278  and  _279
REMARK  111  A    between atoms: _278  and  _281
REMARK  112  A    between atoms: _281  and  _282
REMARK  113  A    between atoms: _285  and  _287
REMARK  114  A    between atoms: _287  and  _288
REMARK  115  A    between atoms: _287  and  _290
REMARK  116  A    between atoms: _290  and  _291
REMARK  117  A    between atoms: _294  and  _296
REMARK  118  A    between atoms: _296  and  _297
REMARK  119  A    between atoms: _296  and  _299
REMARK  120  A    between atoms: _299  and  _300
REMARK  121  A    between atoms: _303  and  _305
REMARK  122  A    between atoms: _305  and  _306
REMARK  123  A    between atoms: _308  and  _310
REMARK  124  A    between atoms: _310  and  _311
REMARK  125  A    between atoms: _314  and  _316
REMARK  126  A    between atoms: _316  and  _317
REMARK  127  A    between atoms: _316  and  _319
REMARK  128  A    between atoms: _319  and  _320
REMARK  129  A    between atoms: _323  and  _325
REMARK  130  A    between atoms: _325  and  _326
REMARK  131  A    between atoms: _325  and  _328
REMARK  132  A    between atoms: _328  and  _329
REMARK  133  A    between atoms: _332  and  _334
REMARK  134  A    between atoms: _334  and  _335
REMARK  135  A    between atoms: _334  and  _337
REMARK  136  A    between atoms: _337  and  _338
REMARK  137  A    between atoms: _341  and  _343
REMARK  138  A    between atoms: _343  and  _344
REMARK  139  A    between atoms: _343  and  _346
REMARK  140  A    between atoms: _349  and  _351
REMARK  141  A    between atoms: _351  and  _352
REMARK  142  A    between atoms: _351  and  _354
REMARK  143  A    between atoms: _354  and  _355
REMARK  144  A    between atoms: _355  and  _356
REMARK  145  A    between atoms: _356  and  _357
REMARK  146  A    between atoms: _357  and  _358
REMARK  147  A    between atoms: _362  and  _364
REMARK  148  A    between atoms: _364  and  _365
REMARK  149  A    between atoms: _364  and  _367
REMARK  150  A    between atoms: _367  and  _368
REMARK  151  A    between atoms: _368  and  _369
REMARK  152  A    between atoms: _371  and  _373
REMARK  153  A    between atoms: _373  and  _374
REMARK  154  A    between atoms: _373  and  _376
REMARK  155  A    between atoms: _376  and  _377
REMARK  156  A    between atoms: _380  and  _382
REMARK  157  A    between atoms: _382  and  _383
REMARK  158  A    between atoms: _385  and  _387
REMARK  159  A    between atoms: _387  and  _388
REMARK  160  A    between atoms: _390  and  _392
REMARK  161  A    between atoms: _392  and  _393
REMARK  162  A    between atoms: _392  and  _395
REMARK  163  A    between atoms: _395  and  _396
REMARK  164  A    between atoms: _399  and  _401
REMARK  165  A    between atoms: _401  and  _402
REMARK  166  A    between atoms: _404  and  _406
REMARK  167  A    between atoms: _406  and  _407
REMARK  168  A    between atoms: _409  and  _411
REMARK  169  A    between atoms: _411  and  _412
REMARK  170  A    between atoms: _411  and  _414
REMARK  171  A    between atoms: _414  and  _415
REMARK  172  A    between atoms: _421  and  _423
REMARK  173  A    between atoms: _423  and  _424
REMARK  174  A    between atoms: _423  and  _426
REMARK  175  A    between atoms: _426  and  _427
REMARK  176  A    between atoms: _431  and  _432
REMARK  177  A    between atoms: _437  and  _439
REMARK  178  A    between atoms: _439  and  _440
REMARK  179  A    between atoms: _439  and  _442
REMARK  180  A    between atoms: _445  and  _447
REMARK  181  A    between atoms: _447  and  _448
REMARK  182  A    between atoms: _447  and  _450
REMARK  183  A    between atoms: _450  and  _451
REMARK  184  A    between atoms: _456  and  _458
REMARK  185  A    between atoms: _458  and  _459
REMARK  186  A    between atoms: _458  and  _461
REMARK  187  A    between atoms: _461  and  _462
REMARK  188  A    between atoms: _465  and  _467
REMARK  189  A    between atoms: _467  and  _468
REMARK  190  A    between atoms: _467  and  _470
REMARK  191  A    between atoms: _470  and  _471
REMARK  192  A    between atoms: _474  and  _476
REMARK  193  A    between atoms: _476  and  _477
REMARK  194  A    between atoms: _479  and  _481
REMARK  195  A    between atoms: _481  and  _482
REMARK  196  A    between atoms: _481  and  _484
REMARK  197  A    between atoms: _484  and  _485
REMARK  198  A    between atoms: _485  and  _486
REMARK  199  A    between atoms: _486  and  _487
REMARK                            x       y       z     vdW  Elec       q    Type
REMARK                         _______ _______ _______ _____ _____    ______ ____
ROOT
ATOM      1  O   HOH     1      24.008   7.280  22.613  0.00  0.00    +0.000 OA
ENDROOT
TORSDOF 0
REMARK  Name = ../refined-set-2016/2q54/2q54_pocket.pdb
REMARK  199 active torsions:
REMARK  status: ('A' for Active; 'I' for Inactive)
REMARK    1  A    between atoms: _1  and  _3
REMARK    2  A    between atoms: _3  and  _4
REMARK    3  A    between atoms: _3  and  _6
REMARK    4  A    between atoms: _6  and  _7
REMARK    5  A    between atoms: _7  and  _8
REMARK    6  A    between atoms: _8  and  _9
REMARK    7  A    between atoms: _18  and  _20
REMARK    8  A    between atoms: _20  and  _21
REMARK    9  A    between atoms: _20  and  _23
REMARK   10  A    between atoms: _23  and  _24
REMARK   11  A    between atoms: _27  and  _29
REMARK   12  A    between atoms: _29  and  _30
REMARK   13  A    between atoms: _29  and  _32
REMARK   14  A    between atoms: _32  and  _33
REMARK   15  A    between atoms: _36  and  _38
REMARK   16  A    between atoms: _38  and  _39
REMARK   17  A    between atoms: _38  and  _41
REMARK   18  A    between atoms: _41  and  _42
REMARK   19  A    between atoms: _45  and  _47
REMARK   20  A    between atoms: _47  and  _48
REMARK   21  A    between atoms: _47  and  _50
REMARK   22  A    between atoms: _50  and  _51
REMARK   23  A    between atoms: _54  and  _56
REMARK   24  A    between atoms: _56  and  _57
REMARK   25  A    between atoms: _59  and  _61
REMARK   26  A    between atoms: _61  and  _62
REMARK   27  A    between atoms: _65  and  _67
REMARK   28  A    between atoms: _67  and  _68
REMARK   29  A    between atoms: _67  and  _70
REMARK   30  A    between atoms: _70  and  _71
REMARK   31  A    between atoms: _74  and  _76
REMARK   32  A    between atoms: _76  and  _77
REMARK   33  A    between atoms: _76  and  _79
REMARK   34  A    between atoms: _79  and  _80
REMARK   35  A    between atoms: _83  and  _85
REMARK   36  A    between atoms: _85  and  _86
REMARK   37  A    between atoms: _85  and  _88
REMARK   38  A    between atoms: _88  and  _89
REMARK   39  A    between atoms: _92  and  _94
REMARK   40  A    between atoms: _94  and  _95
REMARK   41  A    between atoms: _94  and  _97
REMARK   42  A    between atoms: _100  and  _102
REMARK   43  A    between atoms: _102  and  _103
REMARK   44  A    between atoms: _102  and  _105
REMARK   45  A    between atoms: _105  and  _106
REMARK   46  A    between atoms: _109  and  _111
REMARK   47  A    between atoms: _111  and  _112
REMARK   48  A    between atoms: _114  and  _116
REMARK   49  A    between atoms: _116  and  _117
REMARK   50  A    between atoms: _119  and  _121
REMARK   51  A    between atoms: _121  and  _122
REMARK   52  A    between atoms: _121  and  _124
REMARK   53  A    between atoms: _124  and  _125
REMARK   54  A    between atoms: _128  and  _130
REMARK   55  A    between atoms: _130  and  _131
REMARK   56  A    between atoms: _133  and  _135
REMARK   57  A    between atoms: _135  and  _136
REMARK   58  A    between atoms: _138  and  _140
REMARK   59  A    between atoms: _140  and  _141
REMARK   60  A    between atoms: _140  and  _143
REMARK   61  A    between atoms: _143  and  _144
REMARK   62  A    between atoms: _150  and  _152
REMARK   63  A    between atoms: _152  and  _153
REMARK   64  A    between atoms: _152  and  _155
REMARK   65  A    between atoms: _155  and  _156
REMARK   66  A    between atoms: _159  and  _161
REMARK   67  A    between atoms: _161  and  _162
REMARK   68  A    between atoms: _161  and  _164
REMARK   69  A    between atoms: _164  and  _165
REMARK   70  A    between atoms: _169  and  _170
REMARK   71  A    between atoms: _175  and  _177
REMARK   72  A    between atoms: _177  and  _178
REMARK   73  A    between atoms: _177  and  _180
REMARK   74  A    between atoms: _180  and  _181
REMARK   75  A    between atoms: _185  and  _186
REMARK   76  A    between atoms: _191  and  _193
REMARK   77  A    between atoms: _193  and  _194
REMARK   78  A    between atoms: _193  and  _196
REMARK   79  A    between atoms: _199  and  _201
REMARK   80  A    between atoms: _201  and  _202
REMARK   81  A    between atoms: _201  and  _204
REMARK   82  A    between atoms: _204  and  _205
REMARK   83  A    between atoms: _210  and  _212
REMARK   84  A    between atoms: _212  and  _213
REMARK   85  A    between atoms: _212  and  _215
REMARK   86  A    between atoms: _215  and  _216
REMARK   87  A    between atoms: _219  and  _221
REMARK   88  A    between atoms: _221  and  _222
REMARK   89  A    between atoms: _221  and  _224
REMARK   90  A    between atoms: _224  and  _225
REMARK   91  A    between atoms: _228  and  _230
REMARK   92  A    between atoms: _230  and  _231
REMARK   93  A    between atoms: _233  and  _235
REMARK   94  A    between atoms: _235  and  _236
REMARK   95  A    between atoms: _235  and  _238
REMARK   96  A    between atoms: _238  and  _239
REMARK   97  A    between atoms: _239  and  _240
REMARK   98  A    between atoms: _240  and  _241
REMARK   99  A    between atoms: _250  and  _252
REMARK  100  A    between atoms: _252  and  _253
REMARK  101  A    between atoms: _252  and  _255
REMARK  102  A    between atoms: _255  and  _256
REMARK  103  A    between atoms: _256  and  _257
REMARK  104  A    between atoms: _257  and  _258
REMARK  105  A    between atoms: _267  and  _269
REMARK  106  A    between atoms: _269  and  _270
REMARK  107  A    between atoms: _269  and  _272
REMARK  108  A    between atoms: _272  and  _273
REMARK  109  A    between atoms: _276  and  _278
REMARK  110  A    between atoms: _278  and  _279
REMARK  111  A    between atoms: _278  and  _281
REMARK  112  A    between atoms: _281  and  _282
REMARK  113  A    between atoms: _285  and  _287
REMARK  114  A    between atoms: _287  and  _288
REMARK  115  A    between atoms: _287  and  _290
REMARK  116  A    between atoms: _290  and  _291
REMARK  117  A    between atoms: _294  and  _296
REMARK  118  A    between atoms: _296  and  _297
REMARK  119  A    between atoms: _296  and  _299
REMARK  120  A    between atoms: _299  and  _300
REMARK  121  A    between atoms: _303  and  _305
REMARK  122  A    between atoms: _305  and  _306
REMARK  123  A    between atoms: _308  and  _310
REMARK  124  A    between atoms: _310  and  _311
REMARK  125  A    between atoms: _314  and  _316
REMARK  126  A    between atoms: _316  and  _317
REMARK  127  A    between atoms: _316  and  _319
REMARK  128  A    between atoms: _319  and  _320
REMARK  129  A    between atoms: _323  and  _325
REMARK  130  A    between atoms: _325  and  _326
REMARK  131  A    between atoms: _325  and  _328
REMARK  132  A    between atoms: _328  and  _329
REMARK  133  A    between atoms: _332  and  _334
REMARK  134  A    between atoms: _334  and  _335
REMARK  135  A    between atoms: _334  and  _337
REMARK  136  A    between atoms: _337  and  _338
REMARK  137  A    between atoms: _341  and  _343
REMARK  138  A    between atoms: _343  and  _344
REMARK  139  A    between atoms: _343  and  _346
REMARK  140  A    between atoms: _349  and  _351
REMARK  141  A    between atoms: _351  and  _352
REMARK  142  A    between atoms: _351  and  _354
REMARK  143  A    between atoms: _354  and  _355
REMARK  144  A    between atoms: _355  and  _356
REMARK  145  A    between atoms: _356  and  _357
REMARK  146  A    between atoms: _357  and  _358
REMARK  147  A    between atoms: _362  and  _364
REMARK  148  A    between atoms: _364  and  _365
REMARK  149  A    between atoms: _364  and  _367
REMARK  150  A    between atoms: _367  and  _368
REMARK  151  A    between atoms: _368  and  _369
REMARK  152  A    between atoms: _371  and  _373
REMARK  153  A    between atoms: _373  and  _374
REMARK  154  A    between atoms: _373  and  _376
REMARK  155  A    between atoms: _376  and  _377
REMARK  156  A    between atoms: _380  and  _382
REMARK  157  A    between atoms: _382  and  _383
REMARK  158  A    between atoms: _385  and  _387
REMARK  159  A    between atoms: _387  and  _388
REMARK  160  A    between atoms: _390  and  _392
REMARK  161  A    between atoms: _392  and  _393
REMARK  162  A    between atoms: _392  and  _395
REMARK  163  A    between atoms: _395  and  _396
REMARK  164  A    between atoms: _399  and  _401
REMARK  165  A    between atoms: _401  and  _402
REMARK  166  A    between atoms: _404  and  _406
REMARK  167  A    between atoms: _406  and  _407
REMARK  168  A    between atoms: _409  and  _411
REMARK  169  A    between atoms: _411  and  _412
REMARK  170  A    between atoms: _411  and  _414
REMARK  171  A    between atoms: _414  and  _415
REMARK  172  A    between atoms: _421  and  _423
REMARK  173  A    between atoms: _423  and  _424
REMARK  174  A    between atoms: _423  and  _426
REMARK  175  A    between atoms: _426  and  _427
REMARK  176  A    between atoms: _431  and  _432
REMARK  177  A    between atoms: _437  and  _439
REMARK  178  A    between atoms: _439  and  _440
REMARK  179  A    between atoms: _439  and  _442
REMARK  180  A    between atoms: _445  and  _447
REMARK  181  A    between atoms: _447  and  _448
REMARK  182  A    between atoms: _447  and  _450
REMARK  183  A    between atoms: _450  and  _451
REMARK  184  A    between atoms: _456  and  _458
REMARK  185  A    between atoms: _458  and  _459
REMARK  186  A    between atoms: _458  and  _461
REMARK  187  A    between atoms: _461  and  _462
REMARK  188  A    between atoms: _465  and  _467
REMARK  189  A    between atoms: _467  and  _468
REMARK  190  A    between atoms: _467  and  _470
REMARK  191  A    between atoms: _470  and  _471
REMARK  192  A    between atoms: _474  and  _476
REMARK  193  A    between atoms: _476  and  _477
REMARK  194  A    between atoms: _479  and  _481
REMARK  195  A    between atoms: _481  and  _482
REMARK  196  A    between atoms: _481  and  _484
REMARK  197  A    between atoms: _484  and  _485
REMARK  198  A    between atoms: _485  and  _486
REMARK  199  A    between atoms: _486  and  _487
REMARK                            x       y       z     vdW  Elec       q    Type
REMARK                         _______ _______ _______ _____ _____    ______ ____
ROOT
ATOM      1  O   HOH     1      19.852   5.805  17.411  0.00  0.00    +0.000 OA
ENDROOT
TORSDOF 0
REMARK  Name = ../refined-set-2016/2q54/2q54_pocket.pdb
REMARK  199 active torsions:
REMARK  status: ('A' for Active; 'I' for Inactive)
REMARK    1  A    between atoms: _1  and  _3
REMARK    2  A    between atoms: _3  and  _4
REMARK    3  A    between atoms: _3  and  _6
REMARK    4  A    between atoms: _6  and  _7
REMARK    5  A    between atoms: _7  and  _8
REMARK    6  A    between atoms: _8  and  _9
REMARK    7  A    between atoms: _18  and  _20
REMARK    8  A    between atoms: _20  and  _21
REMARK    9  A    between atoms: _20  and  _23
REMARK   10  A    between atoms: _23  and  _24
REMARK   11  A    between atoms: _27  and  _29
REMARK   12  A    between atoms: _29  and  _30
REMARK   13  A    between atoms: _29  and  _32
REMARK   14  A    between atoms: _32  and  _33
REMARK   15  A    between atoms: _36  and  _38
REMARK   16  A    between atoms: _38  and  _39
REMARK   17  A    between atoms: _38  and  _41
REMARK   18  A    between atoms: _41  and  _42
REMARK   19  A    between atoms: _45  and  _47
REMARK   20  A    between atoms: _47  and  _48
REMARK   21  A    between atoms: _47  and  _50
REMARK   22  A    between atoms: _50  and  _51
REMARK   23  A    between atoms: _54  and  _56
REMARK   24  A    between atoms: _56  and  _57
REMARK   25  A    between atoms: _59  and  _61
REMARK   26  A    between atoms: _61  and  _62
REMARK   27  A    between atoms: _65  and  _67
REMARK   28  A    between atoms: _67  and  _68
REMARK   29  A    between atoms: _67  and  _70
REMARK   30  A    between atoms: _70  and  _71
REMARK   31  A    between atoms: _74  and  _76
REMARK   32  A    between atoms: _76  and  _77
REMARK   33  A    between atoms: _76  and  _79
REMARK   34  A    between atoms: _79  and  _80
REMARK   35  A    between atoms: _83  and  _85
REMARK   36  A    between atoms: _85  and  _86
REMARK   37  A    between atoms: _85  and  _88
REMARK   38  A    between atoms: _88  and  _89
REMARK   39  A    between atoms: _92  and  _94
REMARK   40  A    between atoms: _94  and  _95
REMARK   41  A    between atoms: _94  and  _97
REMARK   42  A    between atoms: _100  and  _102
REMARK   43  A    between atoms: _102  and  _103
REMARK   44  A    between atoms: _102  and  _105
REMARK   45  A    between atoms: _105  and  _106
REMARK   46  A    between atoms: _109  and  _111
REMARK   47  A    between atoms: _111  and  _112
REMARK   48  A    between atoms: _114  and  _116
REMARK   49  A    between atoms: _116  and  _117
REMARK   50  A    between atoms: _119  and  _121
REMARK   51  A    between atoms: _121  and  _122
REMARK   52  A    between atoms: _121  and  _124
REMARK   53  A    between atoms: _124  and  _125
REMARK   54  A    between atoms: _128  and  _130
REMARK   55  A    between atoms: _130  and  _131
REMARK   56  A    between atoms: _133  and  _135
REMARK   57  A    between atoms: _135  and  _136
REMARK   58  A    between atoms: _138  and  _140
REMARK   59  A    between atoms: _140  and  _141
REMARK   60  A    between atoms: _140  and  _143
REMARK   61  A    between atoms: _143  and  _144
REMARK   62  A    between atoms: _150  and  _152
REMARK   63  A    between atoms: _152  and  _153
REMARK   64  A    between atoms: _152  and  _155
REMARK   65  A    between atoms: _155  and  _156
REMARK   66  A    between atoms: _159  and  _161
REMARK   67  A    between atoms: _161  and  _162
REMARK   68  A    between atoms: _161  and  _164
REMARK   69  A    between atoms: _164  and  _165
REMARK   70  A    between atoms: _169  and  _170
REMARK   71  A    between atoms: _175  and  _177
REMARK   72  A    between atoms: _177  and  _178
REMARK   73  A    between atoms: _177  and  _180
REMARK   74  A    between atoms: _180  and  _181
REMARK   75  A    between atoms: _185  and  _186
REMARK   76  A    between atoms: _191  and  _193
REMARK   77  A    between atoms: _193  and  _194
REMARK   78  A    between atoms: _193  and  _196
REMARK   79  A    between atoms: _199  and  _201
REMARK   80  A    between atoms: _201  and  _202
REMARK   81  A    between atoms: _201  and  _204
REMARK   82  A    between atoms: _204  and  _205
REMARK   83  A    between atoms: _210  and  _212
REMARK   84  A    between atoms: _212  and  _213
REMARK   85  A    between atoms: _212  and  _215
REMARK   86  A    between atoms: _215  and  _216
REMARK   87  A    between atoms: _219  and  _221
REMARK   88  A    between atoms: _221  and  _222
REMARK   89  A    between atoms: _221  and  _224
REMARK   90  A    between atoms: _224  and  _225
REMARK   91  A    between atoms: _228  and  _230
REMARK   92  A    between atoms: _230  and  _231
REMARK   93  A    between atoms: _233  and  _235
REMARK   94  A    between atoms: _235  and  _236
REMARK   95  A    between atoms: _235  and  _238
REMARK   96  A    between atoms: _238  and  _239
REMARK   97  A    between atoms: _239  and  _240
REMARK   98  A    between atoms: _240  and  _241
REMARK   99  A    between atoms: _250  and  _252
REMARK  100  A    between atoms: _252  and  _253
REMARK  101  A    between atoms: _252  and  _255
REMARK  102  A    between atoms: _255  and  _256
REMARK  103  A    between atoms: _256  and  _257
REMARK  104  A    between atoms: _257  and  _258
REMARK  105  A    between atoms: _267  and  _269
REMARK  106  A    between atoms: _269  and  _270
REMARK  107  A    between atoms: _269  and  _272
REMARK  108  A    between atoms: _272  and  _273
REMARK  109  A    between atoms: _276  and  _278
REMARK  110  A    between atoms: _278  and  _279
REMARK  111  A    between atoms: _278  and  _281
REMARK  112  A    between atoms: _281  and  _282
REMARK  113  A    between atoms: _285  and  _287
REMARK  114  A    between atoms: _287  and  _288
REMARK  115  A    between atoms: _287  and  _290
REMARK  116  A    between atoms: _290  and  _291
REMARK  117  A    between atoms: _294  and  _296
REMARK  118  A    between atoms: _296  and  _297
REMARK  119  A    between atoms: _296  and  _299
REMARK  120  A    between atoms: _299  and  _300
REMARK  121  A    between atoms: _303  and  _305
REMARK  122  A    between atoms: _305  and  _306
REMARK  123  A    between atoms: _308  and  _310
REMARK  124  A    between atoms: _310  and  _311
REMARK  125  A    between atoms: _314  and  _316
REMARK  126  A    between atoms: _316  and  _317
REMARK  127  A    between atoms: _316  and  _319
REMARK  128  A    between atoms: _319  and  _320
REMARK  129  A    between atoms: _323  and  _325
REMARK  130  A    between atoms: _325  and  _326
REMARK  131  A    between atoms: _325  and  _328
REMARK  132  A    between atoms: _328  and  _329
REMARK  133  A    between atoms: _332  and  _334
REMARK  134  A    between atoms: _334  and  _335
REMARK  135  A    between atoms: _334  and  _337
REMARK  136  A    between atoms: _337  and  _338
REMARK  137  A    between atoms: _341  and  _343
REMARK  138  A    between atoms: _343  and  _344
REMARK  139  A    between atoms: _343  and  _346
REMARK  140  A    between atoms: _349  and  _351
REMARK  141  A    between atoms: _351  and  _352
REMARK  142  A    between atoms: _351  and  _354
REMARK  143  A    between atoms: _354  and  _355
REMARK  144  A    between atoms: _355  and  _356
REMARK  145  A    between atoms: _356  and  _357
REMARK  146  A    between atoms: _357  and  _358
REMARK  147  A    between atoms: _362  and  _364
REMARK  148  A    between atoms: _364  and  _365
REMARK  149  A    between atoms: _364  and  _367
REMARK  150  A    between atoms: _367  and  _368
REMARK  151  A    between atoms: _368  and  _369
REMARK  152  A    between atoms: _371  and  _373
REMARK  153  A    between atoms: _373  and  _374
REMARK  154  A    between atoms: _373  and  _376
REMARK  155  A    between atoms: _376  and  _377
REMARK  156  A    between atoms: _380  and  _382
REMARK  157  A    between atoms: _382  and  _383
REMARK  158  A    between atoms: _385  and  _387
REMARK  159  A    between atoms: _387  and  _388
REMARK  160  A    between atoms: _390  and  _392
REMARK  161  A    between atoms: _392  and  _393
REMARK  162  A    between atoms: _392  and  _395
REMARK  163  A    between atoms: _395  and  _396
REMARK  164  A    between atoms: _399  and  _401
REMARK  165  A    between atoms: _401  and  _402
REMARK  166  A    between atoms: _404  and  _406
REMARK  167  A    between atoms: _406  and  _407
REMARK  168  A    between atoms: _409  and  _411
REMARK  169  A    between atoms: _411  and  _412
REMARK  170  A    between atoms: _411  and  _414
REMARK  171  A    between atoms: _414  and  _415
REMARK  172  A    between atoms: _421  and  _423
REMARK  173  A    between atoms: _423  and  _424
REMARK  174  A    between atoms: _423  and  _426
REMARK  175  A    between atoms: _426  and  _427
REMARK  176  A    between atoms: _431  and  _432
REMARK  177  A    between atoms: _437  and  _439
REMARK  178  A    between atoms: _439  and  _440
REMARK  179  A    between atoms: _439  and  _442
REMARK  180  A    between atoms: _445  and  _447
REMARK  181  A    between atoms: _447  and  _448
REMARK  182  A    between atoms: _447  and  _450
REMARK  183  A    between atoms: _450  and  _451
REMARK  184  A    between atoms: _456  and  _458
REMARK  185  A    between atoms: _458  and  _459
REMARK  186  A    between atoms: _458  and  _461
REMARK  187  A    between atoms: _461  and  _462
REMARK  188  A    between atoms: _465  and  _467
REMARK  189  A    between atoms: _467  and  _468
REMARK  190  A    between atoms: _467  and  _470
REMARK  191  A    between atoms: _470  and  _471
REMARK  192  A    between atoms: _474  and  _476
REMARK  193  A    between atoms: _476  and  _477
REMARK  194  A    between atoms: _479  and  _481
REMARK  195  A    between atoms: _481  and  _482
REMARK  196  A    between atoms: _481  and  _484
REMARK  197  A    between atoms: _484  and  _485
REMARK  198  A    between atoms: _485  and  _486
REMARK  199  A    between atoms: _486  and  _487
REMARK                            x       y       z     vdW  Elec       q    Type
REMARK                         _______ _______ _______ _____ _____    ______ ____
ROOT
ATOM      1  O   HOH     1      23.117 -10.016  11.697  0.00  0.00    +0.000 OA
ENDROOT
TORSDOF 0
REMARK  Name = ../refined-set-2016/2q54/2q54_pocket.pdb
REMARK  199 active torsions:
REMARK  status: ('A' for Active; 'I' for Inactive)
REMARK    1  A    between atoms: _1  and  _3
REMARK    2  A    between atoms: _3  and  _4
REMARK    3  A    between atoms: _3  and  _6
REMARK    4  A    between atoms: _6  and  _7
REMARK    5  A    between atoms: _7  and  _8
REMARK    6  A    between atoms: _8  and  _9
REMARK    7  A    between atoms: _18  and  _20
REMARK    8  A    between atoms: _20  and  _21
REMARK    9  A    between atoms: _20  and  _23
REMARK   10  A    between atoms: _23  and  _24
REMARK   11  A    between atoms: _27  and  _29
REMARK   12  A    between atoms: _29  and  _30
REMARK   13  A    between atoms: _29  and  _32
REMARK   14  A    between atoms: _32  and  _33
REMARK   15  A    between atoms: _36  and  _38
REMARK   16  A    between atoms: _38  and  _39
REMARK   17  A    between atoms: _38  and  _41
REMARK   18  A    between atoms: _41  and  _42
REMARK   19  A    between atoms: _45  and  _47
REMARK   20  A    between atoms: _47  and  _48
REMARK   21  A    between atoms: _47  and  _50
REMARK   22  A    between atoms: _50  and  _51
REMARK   23  A    between atoms: _54  and  _56
REMARK   24  A    between atoms: _56  and  _57
REMARK   25  A    between atoms: _59  and  _61
REMARK   26  A    between atoms: _61  and  _62
REMARK   27  A    between atoms: _65  and  _67
REMARK   28  A    between atoms: _67  and  _68
REMARK   29  A    between atoms: _67  and  _70
REMARK   30  A    between atoms: _70  and  _71
REMARK   31  A    between atoms: _74  and  _76
REMARK   32  A    between atoms: _76  and  _77
REMARK   33  A    between atoms: _76  and  _79
REMARK   34  A    between atoms: _79  and  _80
REMARK   35  A    between atoms: _83  and  _85
REMARK   36  A    between atoms: _85  and  _86
REMARK   37  A    between atoms: _85  and  _88
REMARK   38  A    between atoms: _88  and  _89
REMARK   39  A    between atoms: _92  and  _94
REMARK   40  A    between atoms: _94  and  _95
REMARK   41  A    between atoms: _94  and  _97
REMARK   42  A    between atoms: _100  and  _102
REMARK   43  A    between atoms: _102  and  _103
REMARK   44  A    between atoms: _102  and  _105
REMARK   45  A    between atoms: _105  and  _106
REMARK   46  A    between atoms: _109  and  _111
REMARK   47  A    between atoms: _111  and  _112
REMARK   48  A    between atoms: _114  and  _116
REMARK   49  A    between atoms: _116  and  _117
REMARK   50  A    between atoms: _119  and  _121
REMARK   51  A    between atoms: _121  and  _122
REMARK   52  A    between atoms: _121  and  _124
REMARK   53  A    between atoms: _124  and  _125
REMARK   54  A    between atoms: _128  and  _130
REMARK   55  A    between atoms: _130  and  _131
REMARK   56  A    between atoms: _133  and  _135
REMARK   57  A    between atoms: _135  and  _136
REMARK   58  A    between atoms: _138  and  _140
REMARK   59  A    between atoms: _140  and  _141
REMARK   60  A    between atoms: _140  and  _143
REMARK   61  A    between atoms: _143  and  _144
REMARK   62  A    between atoms: _150  and  _152
REMARK   63  A    between atoms: _152  and  _153
REMARK   64  A    between atoms: _152  and  _155
REMARK   65  A    between atoms: _155  and  _156
REMARK   66  A    between atoms: _159  and  _161
REMARK   67  A    between atoms: _161  and  _162
REMARK   68  A    between atoms: _161  and  _164
REMARK   69  A    between atoms: _164  and  _165
REMARK   70  A    between atoms: _169  and  _170
REMARK   71  A    between atoms: _175  and  _177
REMARK   72  A    between atoms: _177  and  _178
REMARK   73  A    between atoms: _177  and  _180
REMARK   74  A    between atoms: _180  and  _181
REMARK   75  A    between atoms: _185  and  _186
REMARK   76  A    between atoms: _191  and  _193
REMARK   77  A    between atoms: _193  and  _194
REMARK   78  A    between atoms: _193  and  _196
REMARK   79  A    between atoms: _199  and  _201
REMARK   80  A    between atoms: _201  and  _202
REMARK   81  A    between atoms: _201  and  _204
REMARK   82  A    between atoms: _204  and  _205
REMARK   83  A    between atoms: _210  and  _212
REMARK   84  A    between atoms: _212  and  _213
REMARK   85  A    between atoms: _212  and  _215
REMARK   86  A    between atoms: _215  and  _216
REMARK   87  A    between atoms: _219  and  _221
REMARK   88  A    between atoms: _221  and  _222
REMARK   89  A    between atoms: _221  and  _224
REMARK   90  A    between atoms: _224  and  _225
REMARK   91  A    between atoms: _228  and  _230
REMARK   92  A    between atoms: _230  and  _231
REMARK   93  A    between atoms: _233  and  _235
REMARK   94  A    between atoms: _235  and  _236
REMARK   95  A    between atoms: _235  and  _238
REMARK   96  A    between atoms: _238  and  _239
REMARK   97  A    between atoms: _239  and  _240
REMARK   98  A    between atoms: _240  and  _241
REMARK   99  A    between atoms: _250  and  _252
REMARK  100  A    between atoms: _252  and  _253
REMARK  101  A    between atoms: _252  and  _255
REMARK  102  A    between atoms: _255  and  _256
REMARK  103  A    between atoms: _256  and  _257
REMARK  104  A    between atoms: _257  and  _258
REMARK  105  A    between atoms: _267  and  _269
REMARK  106  A    between atoms: _269  and  _270
REMARK  107  A    between atoms: _269  and  _272
REMARK  108  A    between atoms: _272  and  _273
REMARK  109  A    between atoms: _276  and  _278
REMARK  110  A    between atoms: _278  and  _279
REMARK  111  A    between atoms: _278  and  _281
REMARK  112  A    between atoms: _281  and  _282
REMARK  113  A    between atoms: _285  and  _287
REMARK  114  A    between atoms: _287  and  _288
REMARK  115  A    between atoms: _287  and  _290
REMARK  116  A    between atoms: _290  and  _291
REMARK  117  A    between atoms: _294  and  _296
REMARK  118  A    between atoms: _296  and  _297
REMARK  119  A    between atoms: _296  and  _299
REMARK  120  A    between atoms: _299  and  _300
REMARK  121  A    between atoms: _303  and  _305
REMARK  122  A    between atoms: _305  and  _306
REMARK  123  A    between atoms: _308  and  _310
REMARK  124  A    between atoms: _310  and  _311
REMARK  125  A    between atoms: _314  and  _316
REMARK  126  A    between atoms: _316  and  _317
REMARK  127  A    between atoms: _316  and  _319
REMARK  128  A    between atoms: _319  and  _320
REMARK  129  A    between atoms: _323  and  _325
REMARK  130  A    between atoms: _325  and  _326
REMARK  131  A    between atoms: _325  and  _328
REMARK  132  A    between atoms: _328  and  _329
REMARK  133  A    between atoms: _332  and  _334
REMARK  134  A    between atoms: _334  and  _335
REMARK  135  A    between atoms: _334  and  _337
REMARK  136  A    between atoms: _337  and  _338
REMARK  137  A    between atoms: _341  and  _343
REMARK  138  A    between atoms: _343  and  _344
REMARK  139  A    between atoms: _343  and  _346
REMARK  140  A    between atoms: _349  and  _351
REMARK  141  A    between atoms: _351  and  _352
REMARK  142  A    between atoms: _351  and  _354
REMARK  143  A    between atoms: _354  and  _355
REMARK  144  A    between atoms: _355  and  _356
REMARK  145  A    between atoms: _356  and  _357
REMARK  146  A    between atoms: _357  and  _358
REMARK  147  A    between atoms: _362  and  _364
REMARK  148  A    between atoms: _364  and  _365
REMARK  149  A    between atoms: _364  and  _367
REMARK  150  A    between atoms: _367  and  _368
REMARK  151  A    between atoms: _368  and  _369
REMARK  152  A    between atoms: _371  and  _373
REMARK  153  A    between atoms: _373  and  _374
REMARK  154  A    between atoms: _373  and  _376
REMARK  155  A    between atoms: _376  and  _377
REMARK  156  A    between atoms: _380  and  _382
REMARK  157  A    between atoms: _382  and  _383
REMARK  158  A    between atoms: _385  and  _387
REMARK  159  A    between atoms: _387  and  _388
REMARK  160  A    between atoms: _390  and  _392
REMARK  161  A    between atoms: _392  and  _393
REMARK  162  A    between atoms: _392  and  _395
REMARK  163  A    between atoms: _395  and  _396
REMARK  164  A    between atoms: _399  and  _401
REMARK  165  A    between atoms: _401  and  _402
REMARK  166  A    between atoms: _404  and  _406
REMARK  167  A    between atoms: _406  and  _407
REMARK  168  A    between atoms: _409  and  _411
REMARK  169  A    between atoms: _411  and  _412
REMARK  170  A    between atoms: _411  and  _414
REMARK  171  A    between atoms: _414  and  _415
REMARK  172  A    between atoms: _421  and  _423
REMARK  173  A    between atoms: _423  and  _424
REMARK  174  A    between atoms: _423  and  _426
REMARK  175  A    between atoms: _426  and  _427
REMARK  176  A    between atoms: _431  and  _432
REMARK  177  A    between atoms: _437  and  _439
REMARK  178  A    between atoms: _439  and  _440
REMARK  179  A    between atoms: _439  and  _442
REMARK  180  A    between atoms: _445  and  _447
REMARK  181  A    between atoms: _447  and  _448
REMARK  182  A    between atoms: _447  and  _450
REMARK  183  A    between atoms: _450  and  _451
REMARK  184  A    between atoms: _456  and  _458
REMARK  185  A    between atoms: _458  and  _459
REMARK  186  A    between atoms: _458  and  _461
REMARK  187  A    between atoms: _461  and  _462
REMARK  188  A    between atoms: _465  and  _467
REMARK  189  A    between atoms: _467  and  _468
REMARK  190  A    between atoms: _467  and  _470
REMARK  191  A    between atoms: _470  and  _471
REMARK  192  A    between atoms: _474  and  _476
REMARK  193  A    between atoms: _476  and  _477
REMARK  194  A    between atoms: _479  and  _481
REMARK  195  A    between atoms: _481  and  _482
REMARK  196  A    between atoms: _481  and  _484
REMARK  197  A    between atoms: _484  and  _485
REMARK  198  A    between atoms: _485  and  _486
REMARK  199  A    between atoms: _486  and  _487
REMARK                            x       y       z     vdW  Elec       q    Type
REMARK                         _______ _______ _______ _____ _____    ______ ____
ROOT
ATOM      1  O   HOH     1      26.469   8.719  21.565  0.00  0.00    +0.000 OA
ENDROOT
TORSDOF 0
REMARK  Name = ../refined-set-2016/2q54/2q54_pocket.pdb
REMARK  199 active torsions:
REMARK  status: ('A' for Active; 'I' for Inactive)
REMARK    1  A    between atoms: _1  and  _3
REMARK    2  A    between atoms: _3  and  _4
REMARK    3  A    between atoms: _3  and  _6
REMARK    4  A    between atoms: _6  and  _7
REMARK    5  A    between atoms: _7  and  _8
REMARK    6  A    between atoms: _8  and  _9
REMARK    7  A    between atoms: _18  and  _20
REMARK    8  A    between atoms: _20  and  _21
REMARK    9  A    between atoms: _20  and  _23
REMARK   10  A    between atoms: _23  and  _24
REMARK   11  A    between atoms: _27  and  _29
REMARK   12  A    between atoms: _29  and  _30
REMARK   13  A    between atoms: _29  and  _32
REMARK   14  A    between atoms: _32  and  _33
REMARK   15  A    between atoms: _36  and  _38
REMARK   16  A    between atoms: _38  and  _39
REMARK   17  A    between atoms: _38  and  _41
REMARK   18  A    between atoms: _41  and  _42
REMARK   19  A    between atoms: _45  and  _47
REMARK   20  A    between atoms: _47  and  _48
REMARK   21  A    between atoms: _47  and  _50
REMARK   22  A    between atoms: _50  and  _51
REMARK   23  A    between atoms: _54  and  _56
REMARK   24  A    between atoms: _56  and  _57
REMARK   25  A    between atoms: _59  and  _61
REMARK   26  A    between atoms: _61  and  _62
REMARK   27  A    between atoms: _65  and  _67
REMARK   28  A    between atoms: _67  and  _68
REMARK   29  A    between atoms: _67  and  _70
REMARK   30  A    between atoms: _70  and  _71
REMARK   31  A    between atoms: _74  and  _76
REMARK   32  A    between atoms: _76  and  _77
REMARK   33  A    between atoms: _76  and  _79
REMARK   34  A    between atoms: _79  and  _80
REMARK   35  A    between atoms: _83  and  _85
REMARK   36  A    between atoms: _85  and  _86
REMARK   37  A    between atoms: _85  and  _88
REMARK   38  A    between atoms: _88  and  _89
REMARK   39  A    between atoms: _92  and  _94
REMARK   40  A    between atoms: _94  and  _95
REMARK   41  A    between atoms: _94  and  _97
REMARK   42  A    between atoms: _100  and  _102
REMARK   43  A    between atoms: _102  and  _103
REMARK   44  A    between atoms: _102  and  _105
REMARK   45  A    between atoms: _105  and  _106
REMARK   46  A    between atoms: _109  and  _111
REMARK   47  A    between atoms: _111  and  _112
REMARK   48  A    between atoms: _114  and  _116
REMARK   49  A    between atoms: _116  and  _117
REMARK   50  A    between atoms: _119  and  _121
REMARK   51  A    between atoms: _121  and  _122
REMARK   52  A    between atoms: _121  and  _124
REMARK   53  A    between atoms: _124  and  _125
REMARK   54  A    between atoms: _128  and  _130
REMARK   55  A    between atoms: _130  and  _131
REMARK   56  A    between atoms: _133  and  _135
REMARK   57  A    between atoms: _135  and  _136
REMARK   58  A    between atoms: _138  and  _140
REMARK   59  A    between atoms: _140  and  _141
REMARK   60  A    between atoms: _140  and  _143
REMARK   61  A    between atoms: _143  and  _144
REMARK   62  A    between atoms: _150  and  _152
REMARK   63  A    between atoms: _152  and  _153
REMARK   64  A    between atoms: _152  and  _155
REMARK   65  A    between atoms: _155  and  _156
REMARK   66  A    between atoms: _159  and  _161
REMARK   67  A    between atoms: _161  and  _162
REMARK   68  A    between atoms: _161  and  _164
REMARK   69  A    between atoms: _164  and  _165
REMARK   70  A    between atoms: _169  and  _170
REMARK   71  A    between atoms: _175  and  _177
REMARK   72  A    between atoms: _177  and  _178
REMARK   73  A    between atoms: _177  and  _180
REMARK   74  A    between atoms: _180  and  _181
REMARK   75  A    between atoms: _185  and  _186
REMARK   76  A    between atoms: _191  and  _193
REMARK   77  A    between atoms: _193  and  _194
REMARK   78  A    between atoms: _193  and  _196
REMARK   79  A    between atoms: _199  and  _201
REMARK   80  A    between atoms: _201  and  _202
REMARK   81  A    between atoms: _201  and  _204
REMARK   82  A    between atoms: _204  and  _205
REMARK   83  A    between atoms: _210  and  _212
REMARK   84  A    between atoms: _212  and  _213
REMARK   85  A    between atoms: _212  and  _215
REMARK   86  A    between atoms: _215  and  _216
REMARK   87  A    between atoms: _219  and  _221
REMARK   88  A    between atoms: _221  and  _222
REMARK   89  A    between atoms: _221  and  _224
REMARK   90  A    between atoms: _224  and  _225
REMARK   91  A    between atoms: _228  and  _230
REMARK   92  A    between atoms: _230  and  _231
REMARK   93  A    between atoms: _233  and  _235
REMARK   94  A    between atoms: _235  and  _236
REMARK   95  A    between atoms: _235  and  _238
REMARK   96  A    between atoms: _238  and  _239
REMARK   97  A    between atoms: _239  and  _240
REMARK   98  A    between atoms: _240  and  _241
REMARK   99  A    between atoms: _250  and  _252
REMARK  100  A    between atoms: _252  and  _253
REMARK  101  A    between atoms: _252  and  _255
REMARK  102  A    between atoms: _255  and  _256
REMARK  103  A    between atoms: _256  and  _257
REMARK  104  A    between atoms: _257  and  _258
REMARK  105  A    between atoms: _267  and  _269
REMARK  106  A    between atoms: _269  and  _270
REMARK  107  A    between atoms: _269  and  _272
REMARK  108  A    between atoms: _272  and  _273
REMARK  109  A    between atoms: _276  and  _278
REMARK  110  A    between atoms: _278  and  _279
REMARK  111  A    between atoms: _278  and  _281
REMARK  112  A    between atoms: _281  and  _282
REMARK  113  A    between atoms: _285  and  _287
REMARK  114  A    between atoms: _287  and  _288
REMARK  115  A    between atoms: _287  and  _290
REMARK  116  A    between atoms: _290  and  _291
REMARK  117  A    between atoms: _294  and  _296
REMARK  118  A    between atoms: _296  and  _297
REMARK  119  A    between atoms: _296  and  _299
REMARK  120  A    between atoms: _299  and  _300
REMARK  121  A    between atoms: _303  and  _305
REMARK  122  A    between atoms: _305  and  _306
REMARK  123  A    between atoms: _308  and  _310
REMARK  124  A    between atoms: _310  and  _311
REMARK  125  A    between atoms: _314  and  _316
REMARK  126  A    between atoms: _316  and  _317
REMARK  127  A    between atoms: _316  and  _319
REMARK  128  A    between atoms: _319  and  _320
REMARK  129  A    between atoms: _323  and  _325
REMARK  130  A    between atoms: _325  and  _326
REMARK  131  A    between atoms: _325  and  _328
REMARK  132  A    between atoms: _328  and  _329
REMARK  133  A    between atoms: _332  and  _334
REMARK  134  A    between atoms: _334  and  _335
REMARK  135  A    between atoms: _334  and  _337
REMARK  136  A    between atoms: _337  and  _338
REMARK  137  A    between atoms: _341  and  _343
REMARK  138  A    between atoms: _343  and  _344
REMARK  139  A    between atoms: _343  and  _346
REMARK  140  A    between atoms: _349  and  _351
REMARK  141  A    between atoms: _351  and  _352
REMARK  142  A    between atoms: _351  and  _354
REMARK  143  A    between atoms: _354  and  _355
REMARK  144  A    between atoms: _355  and  _356
REMARK  145  A    between atoms: _356  and  _357
REMARK  146  A    between atoms: _357  and  _358
REMARK  147  A    between atoms: _362  and  _364
REMARK  148  A    between atoms: _364  and  _365
REMARK  149  A    between atoms: _364  and  _367
REMARK  150  A    between atoms: _367  and  _368
REMARK  151  A    between atoms: _368  and  _369
REMARK  152  A    between atoms: _371  and  _373
REMARK  153  A    between atoms: _373  and  _374
REMARK  154  A    between atoms: _373  and  _376
REMARK  155  A    between atoms: _376  and  _377
REMARK  156  A    between atoms: _380  and  _382
REMARK  157  A    between atoms: _382  and  _383
REMARK  158  A    between atoms: _385  and  _387
REMARK  159  A    between atoms: _387  and  _388
REMARK  160  A    between atoms: _390  and  _392
REMARK  161  A    between atoms: _392  and  _393
REMARK  162  A    between atoms: _392  and  _395
REMARK  163  A    between atoms: _395  and  _396
REMARK  164  A    between atoms: _399  and  _401
REMARK  165  A    between atoms: _401  and  _402
REMARK  166  A    between atoms: _404  and  _406
REMARK  167  A    between atoms: _406  and  _407
REMARK  168  A    between atoms: _409  and  _411
REMARK  169  A    between atoms: _411  and  _412
REMARK  170  A    between atoms: _411  and  _414
REMARK  171  A    between atoms: _414  and  _415
REMARK  172  A    between atoms: _421  and  _423
REMARK  173  A    between atoms: _423  and  _424
REMARK  174  A    between atoms: _423  and  _426
REMARK  175  A    between atoms: _426  and  _427
REMARK  176  A    between atoms: _431  and  _432
REMARK  177  A    between atoms: _437  and  _439
REMARK  178  A    between atoms: _439  and  _440
REMARK  179  A    between atoms: _439  and  _442
REMARK  180  A    between atoms: _445  and  _447
REMARK  181  A    between atoms: _447  and  _448
REMARK  182  A    between atoms: _447  and  _450
REMARK  183  A    between atoms: _450  and  _451
REMARK  184  A    between atoms: _456  and  _458
REMARK  185  A    between atoms: _458  and  _459
REMARK  186  A    between atoms: _458  and  _461
REMARK  187  A    between atoms: _461  and  _462
REMARK  188  A    between atoms: _465  and  _467
REMARK  189  A    between atoms: _467  and  _468
REMARK  190  A    between atoms: _467  and  _470
REMARK  191  A    between atoms: _470  and  _471
REMARK  192  A    between atoms: _474  and  _476
REMARK  193  A    between atoms: _476  and  _477
REMARK  194  A    between atoms: _479  and  _481
REMARK  195  A    between atoms: _481  and  _482
REMARK  196  A    between atoms: _481  and  _484
REMARK  197  A    between atoms: _484  and  _485
REMARK  198  A    between atoms: _485  and  _486
REMARK  199  A    between atoms: _486  and  _487
REMARK                            x       y       z     vdW  Elec       q    Type
REMARK                         _______ _______ _______ _____ _____    ______ ____
ROOT
ATOM      1  O   HOH     1      24.719   4.139  27.320  0.00  0.00    +0.000 OA
ENDROOT
TORSDOF 0
REMARK  Name = ../refined-set-2016/2q54/2q54_pocket.pdb
REMARK  199 active torsions:
REMARK  status: ('A' for Active; 'I' for Inactive)
REMARK    1  A    between atoms: _1  and  _3
REMARK    2  A    between atoms: _3  and  _4
REMARK    3  A    between atoms: _3  and  _6
REMARK    4  A    between atoms: _6  and  _7
REMARK    5  A    between atoms: _7  and  _8
REMARK    6  A    between atoms: _8  and  _9
REMARK    7  A    between atoms: _18  and  _20
REMARK    8  A    between atoms: _20  and  _21
REMARK    9  A    between atoms: _20  and  _23
REMARK   10  A    between atoms: _23  and  _24
REMARK   11  A    between atoms: _27  and  _29
REMARK   12  A    between atoms: _29  and  _30
REMARK   13  A    between atoms: _29  and  _32
REMARK   14  A    between atoms: _32  and  _33
REMARK   15  A    between atoms: _36  and  _38
REMARK   16  A    between atoms: _38  and  _39
REMARK   17  A    between atoms: _38  and  _41
REMARK   18  A    between atoms: _41  and  _42
REMARK   19  A    between atoms: _45  and  _47
REMARK   20  A    between atoms: _47  and  _48
REMARK   21  A    between atoms: _47  and  _50
REMARK   22  A    between atoms: _50  and  _51
REMARK   23  A    between atoms: _54  and  _56
REMARK   24  A    between atoms: _56  and  _57
REMARK   25  A    between atoms: _59  and  _61
REMARK   26  A    between atoms: _61  and  _62
REMARK   27  A    between atoms: _65  and  _67
REMARK   28  A    between atoms: _67  and  _68
REMARK   29  A    between atoms: _67  and  _70
REMARK   30  A    between atoms: _70  and  _71
REMARK   31  A    between atoms: _74  and  _76
REMARK   32  A    between atoms: _76  and  _77
REMARK   33  A    between atoms: _76  and  _79
REMARK   34  A    between atoms: _79  and  _80
REMARK   35  A    between atoms: _83  and  _85
REMARK   36  A    between atoms: _85  and  _86
REMARK   37  A    between atoms: _85  and  _88
REMARK   38  A    between atoms: _88  and  _89
REMARK   39  A    between atoms: _92  and  _94
REMARK   40  A    between atoms: _94  and  _95
REMARK   41  A    between atoms: _94  and  _97
REMARK   42  A    between atoms: _100  and  _102
REMARK   43  A    between atoms: _102  and  _103
REMARK   44  A    between atoms: _102  and  _105
REMARK   45  A    between atoms: _105  and  _106
REMARK   46  A    between atoms: _109  and  _111
REMARK   47  A    between atoms: _111  and  _112
REMARK   48  A    between atoms: _114  and  _116
REMARK   49  A    between atoms: _116  and  _117
REMARK   50  A    between atoms: _119  and  _121
REMARK   51  A    between atoms: _121  and  _122
REMARK   52  A    between atoms: _121  and  _124
REMARK   53  A    between atoms: _124  and  _125
REMARK   54  A    between atoms: _128  and  _130
REMARK   55  A    between atoms: _130  and  _131
REMARK   56  A    between atoms: _133  and  _135
REMARK   57  A    between atoms: _135  and  _136
REMARK   58  A    between atoms: _138  and  _140
REMARK   59  A    between atoms: _140  and  _141
REMARK   60  A    between atoms: _140  and  _143
REMARK   61  A    between atoms: _143  and  _144
REMARK   62  A    between atoms: _150  and  _152
REMARK   63  A    between atoms: _152  and  _153
REMARK   64  A    between atoms: _152  and  _155
REMARK   65  A    between atoms: _155  and  _156
REMARK   66  A    between atoms: _159  and  _161
REMARK   67  A    between atoms: _161  and  _162
REMARK   68  A    between atoms: _161  and  _164
REMARK   69  A    between atoms: _164  and  _165
REMARK   70  A    between atoms: _169  and  _170
REMARK   71  A    between atoms: _175  and  _177
REMARK   72  A    between atoms: _177  and  _178
REMARK   73  A    between atoms: _177  and  _180
REMARK   74  A    between atoms: _180  and  _181
REMARK   75  A    between atoms: _185  and  _186
REMARK   76  A    between atoms: _191  and  _193
REMARK   77  A    between atoms: _193  and  _194
REMARK   78  A    between atoms: _193  and  _196
REMARK   79  A    between atoms: _199  and  _201
REMARK   80  A    between atoms: _201  and  _202
REMARK   81  A    between atoms: _201  and  _204
REMARK   82  A    between atoms: _204  and  _205
REMARK   83  A    between atoms: _210  and  _212
REMARK   84  A    between atoms: _212  and  _213
REMARK   85  A    between atoms: _212  and  _215
REMARK   86  A    between atoms: _215  and  _216
REMARK   87  A    between atoms: _219  and  _221
REMARK   88  A    between atoms: _221  and  _222
REMARK   89  A    between atoms: _221  and  _224
REMARK   90  A    between atoms: _224  and  _225
REMARK   91  A    between atoms: _228  and  _230
REMARK   92  A    between atoms: _230  and  _231
REMARK   93  A    between atoms: _233  and  _235
REMARK   94  A    between atoms: _235  and  _236
REMARK   95  A    between atoms: _235  and  _238
REMARK   96  A    between atoms: _238  and  _239
REMARK   97  A    between atoms: _239  and  _240
REMARK   98  A    between atoms: _240  and  _241
REMARK   99  A    between atoms: _250  and  _252
REMARK  100  A    between atoms: _252  and  _253
REMARK  101  A    between atoms: _252  and  _255
REMARK  102  A    between atoms: _255  and  _256
REMARK  103  A    between atoms: _256  and  _257
REMARK  104  A    between atoms: _257  and  _258
REMARK  105  A    between atoms: _267  and  _269
REMARK  106  A    between atoms: _269  and  _270
REMARK  107  A    between atoms: _269  and  _272
REMARK  108  A    between atoms: _272  and  _273
REMARK  109  A    between atoms: _276  and  _278
REMARK  110  A    between atoms: _278  and  _279
REMARK  111  A    between atoms: _278  and  _281
REMARK  112  A    between atoms: _281  and  _282
REMARK  113  A    between atoms: _285  and  _287
REMARK  114  A    between atoms: _287  and  _288
REMARK  115  A    between atoms: _287  and  _290
REMARK  116  A    between atoms: _290  and  _291
REMARK  117  A    between atoms: _294  and  _296
REMARK  118  A    between atoms: _296  and  _297
REMARK  119  A    between atoms: _296  and  _299
REMARK  120  A    between atoms: _299  and  _300
REMARK  121  A    between atoms: _303  and  _305
REMARK  122  A    between atoms: _305  and  _306
REMARK  123  A    between atoms: _308  and  _310
REMARK  124  A    between atoms: _310  and  _311
REMARK  125  A    between atoms: _314  and  _316
REMARK  126  A    between atoms: _316  and  _317
REMARK  127  A    between atoms: _316  and  _319
REMARK  128  A    between atoms: _319  and  _320
REMARK  129  A    between atoms: _323  and  _325
REMARK  130  A    between atoms: _325  and  _326
REMARK  131  A    between atoms: _325  and  _328
REMARK  132  A    between atoms: _328  and  _329
REMARK  133  A    between atoms: _332  and  _334
REMARK  134  A    between atoms: _334  and  _335
REMARK  135  A    between atoms: _334  and  _337
REMARK  136  A    between atoms: _337  and  _338
REMARK  137  A    between atoms: _341  and  _343
REMARK  138  A    between atoms: _343  and  _344
REMARK  139  A    between atoms: _343  and  _346
REMARK  140  A    between atoms: _349  and  _351
REMARK  141  A    between atoms: _351  and  _352
REMARK  142  A    between atoms: _351  and  _354
REMARK  143  A    between atoms: _354  and  _355
REMARK  144  A    between atoms: _355  and  _356
REMARK  145  A    between atoms: _356  and  _357
REMARK  146  A    between atoms: _357  and  _358
REMARK  147  A    between atoms: _362  and  _364
REMARK  148  A    between atoms: _364  and  _365
REMARK  149  A    between atoms: _364  and  _367
REMARK  150  A    between atoms: _367  and  _368
REMARK  151  A    between atoms: _368  and  _369
REMARK  152  A    between atoms: _371  and  _373
REMARK  153  A    between atoms: _373  and  _374
REMARK  154  A    between atoms: _373  and  _376
REMARK  155  A    between atoms: _376  and  _377
REMARK  156  A    between atoms: _380  and  _382
REMARK  157  A    between atoms: _382  and  _383
REMARK  158  A    between atoms: _385  and  _387
REMARK  159  A    between atoms: _387  and  _388
REMARK  160  A    between atoms: _390  and  _392
REMARK  161  A    between atoms: _392  and  _393
REMARK  162  A    between atoms: _392  and  _395
REMARK  163  A    between atoms: _395  and  _396
REMARK  164  A    between atoms: _399  and  _401
REMARK  165  A    between atoms: _401  and  _402
REMARK  166  A    between atoms: _404  and  _406
REMARK  167  A    between atoms: _406  and  _407
REMARK  168  A    between atoms: _409  and  _411
REMARK  169  A    between atoms: _411  and  _412
REMARK  170  A    between atoms: _411  and  _414
REMARK  171  A    between atoms: _414  and  _415
REMARK  172  A    between atoms: _421  and  _423
REMARK  173  A    between atoms: _423  and  _424
REMARK  174  A    between atoms: _423  and  _426
REMARK  175  A    between atoms: _426  and  _427
REMARK  176  A    between atoms: _431  and  _432
REMARK  177  A    between atoms: _437  and  _439
REMARK  178  A    between atoms: _439  and  _440
REMARK  179  A    between atoms: _439  and  _442
REMARK  180  A    between atoms: _445  and  _447
REMARK  181  A    between atoms: _447  and  _448
REMARK  182  A    between atoms: _447  and  _450
REMARK  183  A    between atoms: _450  and  _451
REMARK  184  A    between atoms: _456  and  _458
REMARK  185  A    between atoms: _458  and  _459
REMARK  186  A    between atoms: _458  and  _461
REMARK  187  A    between atoms: _461  and  _462
REMARK  188  A    between atoms: _465  and  _467
REMARK  189  A    between atoms: _467  and  _468
REMARK  190  A    between atoms: _467  and  _470
REMARK  191  A    between atoms: _470  and  _471
REMARK  192  A    between atoms: _474  and  _476
REMARK  193  A    between atoms: _476  and  _477
REMARK  194  A    between atoms: _479  and  _481
REMARK  195  A    between atoms: _481  and  _482
REMARK  196  A    between atoms: _481  and  _484
REMARK  197  A    between atoms: _484  and  _485
REMARK  198  A    between atoms: _485  and  _486
REMARK  199  A    between atoms: _486  and  _487
REMARK                            x       y       z     vdW  Elec       q    Type
REMARK                         _______ _______ _______ _____ _____    ______ ____
ROOT
ATOM      1  O   HOH     1      18.747  -0.640  25.203  0.00  0.00    +0.000 OA
ENDROOT
TORSDOF 0
REMARK  Name = ../refined-set-2016/2q54/2q54_pocket.pdb
REMARK  199 active torsions:
REMARK  status: ('A' for Active; 'I' for Inactive)
REMARK    1  A    between atoms: _1  and  _3
REMARK    2  A    between atoms: _3  and  _4
REMARK    3  A    between atoms: _3  and  _6
REMARK    4  A    between atoms: _6  and  _7
REMARK    5  A    between atoms: _7  and  _8
REMARK    6  A    between atoms: _8  and  _9
REMARK    7  A    between atoms: _18  and  _20
REMARK    8  A    between atoms: _20  and  _21
REMARK    9  A    between atoms: _20  and  _23
REMARK   10  A    between atoms: _23  and  _24
REMARK   11  A    between atoms: _27  and  _29
REMARK   12  A    between atoms: _29  and  _30
REMARK   13  A    between atoms: _29  and  _32
REMARK   14  A    between atoms: _32  and  _33
REMARK   15  A    between atoms: _36  and  _38
REMARK   16  A    between atoms: _38  and  _39
REMARK   17  A    between atoms: _38  and  _41
REMARK   18  A    between atoms: _41  and  _42
REMARK   19  A    between atoms: _45  and  _47
REMARK   20  A    between atoms: _47  and  _48
REMARK   21  A    between atoms: _47  and  _50
REMARK   22  A    between atoms: _50  and  _51
REMARK   23  A    between atoms: _54  and  _56
REMARK   24  A    between atoms: _56  and  _57
REMARK   25  A    between atoms: _59  and  _61
REMARK   26  A    between atoms: _61  and  _62
REMARK   27  A    between atoms: _65  and  _67
REMARK   28  A    between atoms: _67  and  _68
REMARK   29  A    between atoms: _67  and  _70
REMARK   30  A    between atoms: _70  and  _71
REMARK   31  A    between atoms: _74  and  _76
REMARK   32  A    between atoms: _76  and  _77
REMARK   33  A    between atoms: _76  and  _79
REMARK   34  A    between atoms: _79  and  _80
REMARK   35  A    between atoms: _83  and  _85
REMARK   36  A    between atoms: _85  and  _86
REMARK   37  A    between atoms: _85  and  _88
REMARK   38  A    between atoms: _88  and  _89
REMARK   39  A    between atoms: _92  and  _94
REMARK   40  A    between atoms: _94  and  _95
REMARK   41  A    between atoms: _94  and  _97
REMARK   42  A    between atoms: _100  and  _102
REMARK   43  A    between atoms: _102  and  _103
REMARK   44  A    between atoms: _102  and  _105
REMARK   45  A    between atoms: _105  and  _106
REMARK   46  A    between atoms: _109  and  _111
REMARK   47  A    between atoms: _111  and  _112
REMARK   48  A    between atoms: _114  and  _116
REMARK   49  A    between atoms: _116  and  _117
REMARK   50  A    between atoms: _119  and  _121
REMARK   51  A    between atoms: _121  and  _122
REMARK   52  A    between atoms: _121  and  _124
REMARK   53  A    between atoms: _124  and  _125
REMARK   54  A    between atoms: _128  and  _130
REMARK   55  A    between atoms: _130  and  _131
REMARK   56  A    between atoms: _133  and  _135
REMARK   57  A    between atoms: _135  and  _136
REMARK   58  A    between atoms: _138  and  _140
REMARK   59  A    between atoms: _140  and  _141
REMARK   60  A    between atoms: _140  and  _143
REMARK   61  A    between atoms: _143  and  _144
REMARK   62  A    between atoms: _150  and  _152
REMARK   63  A    between atoms: _152  and  _153
REMARK   64  A    between atoms: _152  and  _155
REMARK   65  A    between atoms: _155  and  _156
REMARK   66  A    between atoms: _159  and  _161
REMARK   67  A    between atoms: _161  and  _162
REMARK   68  A    between atoms: _161  and  _164
REMARK   69  A    between atoms: _164  and  _165
REMARK   70  A    between atoms: _169  and  _170
REMARK   71  A    between atoms: _175  and  _177
REMARK   72  A    between atoms: _177  and  _178
REMARK   73  A    between atoms: _177  and  _180
REMARK   74  A    between atoms: _180  and  _181
REMARK   75  A    between atoms: _185  and  _186
REMARK   76  A    between atoms: _191  and  _193
REMARK   77  A    between atoms: _193  and  _194
REMARK   78  A    between atoms: _193  and  _196
REMARK   79  A    between atoms: _199  and  _201
REMARK   80  A    between atoms: _201  and  _202
REMARK   81  A    between atoms: _201  and  _204
REMARK   82  A    between atoms: _204  and  _205
REMARK   83  A    between atoms: _210  and  _212
REMARK   84  A    between atoms: _212  and  _213
REMARK   85  A    between atoms: _212  and  _215
REMARK   86  A    between atoms: _215  and  _216
REMARK   87  A    between atoms: _219  and  _221
REMARK   88  A    between atoms: _221  and  _222
REMARK   89  A    between atoms: _221  and  _224
REMARK   90  A    between atoms: _224  and  _225
REMARK   91  A    between atoms: _228  and  _230
REMARK   92  A    between atoms: _230  and  _231
REMARK   93  A    between atoms: _233  and  _235
REMARK   94  A    between atoms: _235  and  _236
REMARK   95  A    between atoms: _235  and  _238
REMARK   96  A    between atoms: _238  and  _239
REMARK   97  A    between atoms: _239  and  _240
REMARK   98  A    between atoms: _240  and  _241
REMARK   99  A    between atoms: _250  and  _252
REMARK  100  A    between atoms: _252  and  _253
REMARK  101  A    between atoms: _252  and  _255
REMARK  102  A    between atoms: _255  and  _256
REMARK  103  A    between atoms: _256  and  _257
REMARK  104  A    between atoms: _257  and  _258
REMARK  105  A    between atoms: _267  and  _269
REMARK  106  A    between atoms: _269  and  _270
REMARK  107  A    between atoms: _269  and  _272
REMARK  108  A    between atoms: _272  and  _273
REMARK  109  A    between atoms: _276  and  _278
REMARK  110  A    between atoms: _278  and  _279
REMARK  111  A    between atoms: _278  and  _281
REMARK  112  A    between atoms: _281  and  _282
REMARK  113  A    between atoms: _285  and  _287
REMARK  114  A    between atoms: _287  and  _288
REMARK  115  A    between atoms: _287  and  _290
REMARK  116  A    between atoms: _290  and  _291
REMARK  117  A    between atoms: _294  and  _296
REMARK  118  A    between atoms: _296  and  _297
REMARK  119  A    between atoms: _296  and  _299
REMARK  120  A    between atoms: _299  and  _300
REMARK  121  A    between atoms: _303  and  _305
REMARK  122  A    between atoms: _305  and  _306
REMARK  123  A    between atoms: _308  and  _310
REMARK  124  A    between atoms: _310  and  _311
REMARK  125  A    between atoms: _314  and  _316
REMARK  126  A    between atoms: _316  and  _317
REMARK  127  A    between atoms: _316  and  _319
REMARK  128  A    between atoms: _319  and  _320
REMARK  129  A    between atoms: _323  and  _325
REMARK  130  A    between atoms: _325  and  _326
REMARK  131  A    between atoms: _325  and  _328
REMARK  132  A    between atoms: _328  and  _329
REMARK  133  A    between atoms: _332  and  _334
REMARK  134  A    between atoms: _334  and  _335
REMARK  135  A    between atoms: _334  and  _337
REMARK  136  A    between atoms: _337  and  _338
REMARK  137  A    between atoms: _341  and  _343
REMARK  138  A    between atoms: _343  and  _344
REMARK  139  A    between atoms: _343  and  _346
REMARK  140  A    between atoms: _349  and  _351
REMARK  141  A    between atoms: _351  and  _352
REMARK  142  A    between atoms: _351  and  _354
REMARK  143  A    between atoms: _354  and  _355
REMARK  144  A    between atoms: _355  and  _356
REMARK  145  A    between atoms: _356  and  _357
REMARK  146  A    between atoms: _357  and  _358
REMARK  147  A    between atoms: _362  and  _364
REMARK  148  A    between atoms: _364  and  _365
REMARK  149  A    between atoms: _364  and  _367
REMARK  150  A    between atoms: _367  and  _368
REMARK  151  A    between atoms: _368  and  _369
REMARK  152  A    between atoms: _371  and  _373
REMARK  153  A    between atoms: _373  and  _374
REMARK  154  A    between atoms: _373  and  _376
REMARK  155  A    between atoms: _376  and  _377
REMARK  156  A    between atoms: _380  and  _382
REMARK  157  A    between atoms: _382  and  _383
REMARK  158  A    between atoms: _385  and  _387
REMARK  159  A    between atoms: _387  and  _388
REMARK  160  A    between atoms: _390  and  _392
REMARK  161  A    between atoms: _392  and  _393
REMARK  162  A    between atoms: _392  and  _395
REMARK  163  A    between atoms: _395  and  _396
REMARK  164  A    between atoms: _399  and  _401
REMARK  165  A    between atoms: _401  and  _402
REMARK  166  A    between atoms: _404  and  _406
REMARK  167  A    between atoms: _406  and  _407
REMARK  168  A    between atoms: _409  and  _411
REMARK  169  A    between atoms: _411  and  _412
REMARK  170  A    between atoms: _411  and  _414
REMARK  171  A    between atoms: _414  and  _415
REMARK  172  A    between atoms: _421  and  _423
REMARK  173  A    between atoms: _423  and  _424
REMARK  174  A    between atoms: _423  and  _426
REMARK  175  A    between atoms: _426  and  _427
REMARK  176  A    between atoms: _431  and  _432
REMARK  177  A    between atoms: _437  and  _439
REMARK  178  A    between atoms: _439  and  _440
REMARK  179  A    between atoms: _439  and  _442
REMARK  180  A    between atoms: _445  and  _447
REMARK  181  A    between atoms: _447  and  _448
REMARK  182  A    between atoms: _447  and  _450
REMARK  183  A    between atoms: _450  and  _451
REMARK  184  A    between atoms: _456  and  _458
REMARK  185  A    between atoms: _458  and  _459
REMARK  186  A    between atoms: _458  and  _461
REMARK  187  A    between atoms: _461  and  _462
REMARK  188  A    between atoms: _465  and  _467
REMARK  189  A    between atoms: _467  and  _468
REMARK  190  A    between atoms: _467  and  _470
REMARK  191  A    between atoms: _470  and  _471
REMARK  192  A    between atoms: _474  and  _476
REMARK  193  A    between atoms: _476  and  _477
REMARK  194  A    between atoms: _479  and  _481
REMARK  195  A    between atoms: _481  and  _482
REMARK  196  A    between atoms: _481  and  _484
REMARK  197  A    between atoms: _484  and  _485
REMARK  198  A    between atoms: _485  and  _486
REMARK  199  A    between atoms: _486  and  _487
REMARK                            x       y       z     vdW  Elec       q    Type
REMARK                         _______ _______ _______ _____ _____    ______ ____
ROOT
ATOM      1  O   HOH     1      16.455  -2.272  26.390  0.00  0.00    +0.000 OA
ENDROOT
TORSDOF 0
REMARK  Name = ../refined-set-2016/2q54/2q54_pocket.pdb
REMARK  199 active torsions:
REMARK  status: ('A' for Active; 'I' for Inactive)
REMARK    1  A    between atoms: _1  and  _3
REMARK    2  A    between atoms: _3  and  _4
REMARK    3  A    between atoms: _3  and  _6
REMARK    4  A    between atoms: _6  and  _7
REMARK    5  A    between atoms: _7  and  _8
REMARK    6  A    between atoms: _8  and  _9
REMARK    7  A    between atoms: _18  and  _20
REMARK    8  A    between atoms: _20  and  _21
REMARK    9  A    between atoms: _20  and  _23
REMARK   10  A    between atoms: _23  and  _24
REMARK   11  A    between atoms: _27  and  _29
REMARK   12  A    between atoms: _29  and  _30
REMARK   13  A    between atoms: _29  and  _32
REMARK   14  A    between atoms: _32  and  _33
REMARK   15  A    between atoms: _36  and  _38
REMARK   16  A    between atoms: _38  and  _39
REMARK   17  A    between atoms: _38  and  _41
REMARK   18  A    between atoms: _41  and  _42
REMARK   19  A    between atoms: _45  and  _47
REMARK   20  A    between atoms: _47  and  _48
REMARK   21  A    between atoms: _47  and  _50
REMARK   22  A    between atoms: _50  and  _51
REMARK   23  A    between atoms: _54  and  _56
REMARK   24  A    between atoms: _56  and  _57
REMARK   25  A    between atoms: _59  and  _61
REMARK   26  A    between atoms: _61  and  _62
REMARK   27  A    between atoms: _65  and  _67
REMARK   28  A    between atoms: _67  and  _68
REMARK   29  A    between atoms: _67  and  _70
REMARK   30  A    between atoms: _70  and  _71
REMARK   31  A    between atoms: _74  and  _76
REMARK   32  A    between atoms: _76  and  _77
REMARK   33  A    between atoms: _76  and  _79
REMARK   34  A    between atoms: _79  and  _80
REMARK   35  A    between atoms: _83  and  _85
REMARK   36  A    between atoms: _85  and  _86
REMARK   37  A    between atoms: _85  and  _88
REMARK   38  A    between atoms: _88  and  _89
REMARK   39  A    between atoms: _92  and  _94
REMARK   40  A    between atoms: _94  and  _95
REMARK   41  A    between atoms: _94  and  _97
REMARK   42  A    between atoms: _100  and  _102
REMARK   43  A    between atoms: _102  and  _103
REMARK   44  A    between atoms: _102  and  _105
REMARK   45  A    between atoms: _105  and  _106
REMARK   46  A    between atoms: _109  and  _111
REMARK   47  A    between atoms: _111  and  _112
REMARK   48  A    between atoms: _114  and  _116
REMARK   49  A    between atoms: _116  and  _117
REMARK   50  A    between atoms: _119  and  _121
REMARK   51  A    between atoms: _121  and  _122
REMARK   52  A    between atoms: _121  and  _124
REMARK   53  A    between atoms: _124  and  _125
REMARK   54  A    between atoms: _128  and  _130
REMARK   55  A    between atoms: _130  and  _131
REMARK   56  A    between atoms: _133  and  _135
REMARK   57  A    between atoms: _135  and  _136
REMARK   58  A    between atoms: _138  and  _140
REMARK   59  A    between atoms: _140  and  _141
REMARK   60  A    between atoms: _140  and  _143
REMARK   61  A    between atoms: _143  and  _144
REMARK   62  A    between atoms: _150  and  _152
REMARK   63  A    between atoms: _152  and  _153
REMARK   64  A    between atoms: _152  and  _155
REMARK   65  A    between atoms: _155  and  _156
REMARK   66  A    between atoms: _159  and  _161
REMARK   67  A    between atoms: _161  and  _162
REMARK   68  A    between atoms: _161  and  _164
REMARK   69  A    between atoms: _164  and  _165
REMARK   70  A    between atoms: _169  and  _170
REMARK   71  A    between atoms: _175  and  _177
REMARK   72  A    between atoms: _177  and  _178
REMARK   73  A    between atoms: _177  and  _180
REMARK   74  A    between atoms: _180  and  _181
REMARK   75  A    between atoms: _185  and  _186
REMARK   76  A    between atoms: _191  and  _193
REMARK   77  A    between atoms: _193  and  _194
REMARK   78  A    between atoms: _193  and  _196
REMARK   79  A    between atoms: _199  and  _201
REMARK   80  A    between atoms: _201  and  _202
REMARK   81  A    between atoms: _201  and  _204
REMARK   82  A    between atoms: _204  and  _205
REMARK   83  A    between atoms: _210  and  _212
REMARK   84  A    between atoms: _212  and  _213
REMARK   85  A    between atoms: _212  and  _215
REMARK   86  A    between atoms: _215  and  _216
REMARK   87  A    between atoms: _219  and  _221
REMARK   88  A    between atoms: _221  and  _222
REMARK   89  A    between atoms: _221  and  _224
REMARK   90  A    between atoms: _224  and  _225
REMARK   91  A    between atoms: _228  and  _230
REMARK   92  A    between atoms: _230  and  _231
REMARK   93  A    between atoms: _233  and  _235
REMARK   94  A    between atoms: _235  and  _236
REMARK   95  A    between atoms: _235  and  _238
REMARK   96  A    between atoms: _238  and  _239
REMARK   97  A    between atoms: _239  and  _240
REMARK   98  A    between atoms: _240  and  _241
REMARK   99  A    between atoms: _250  and  _252
REMARK  100  A    between atoms: _252  and  _253
REMARK  101  A    between atoms: _252  and  _255
REMARK  102  A    between atoms: _255  and  _256
REMARK  103  A    between atoms: _256  and  _257
REMARK  104  A    between atoms: _257  and  _258
REMARK  105  A    between atoms: _267  and  _269
REMARK  106  A    between atoms: _269  and  _270
REMARK  107  A    between atoms: _269  and  _272
REMARK  108  A    between atoms: _272  and  _273
REMARK  109  A    between atoms: _276  and  _278
REMARK  110  A    between atoms: _278  and  _279
REMARK  111  A    between atoms: _278  and  _281
REMARK  112  A    between atoms: _281  and  _282
REMARK  113  A    between atoms: _285  and  _287
REMARK  114  A    between atoms: _287  and  _288
REMARK  115  A    between atoms: _287  and  _290
REMARK  116  A    between atoms: _290  and  _291
REMARK  117  A    between atoms: _294  and  _296
REMARK  118  A    between atoms: _296  and  _297
REMARK  119  A    between atoms: _296  and  _299
REMARK  120  A    between atoms: _299  and  _300
REMARK  121  A    between atoms: _303  and  _305
REMARK  122  A    between atoms: _305  and  _306
REMARK  123  A    between atoms: _308  and  _310
REMARK  124  A    between atoms: _310  and  _311
REMARK  125  A    between atoms: _314  and  _316
REMARK  126  A    between atoms: _316  and  _317
REMARK  127  A    between atoms: _316  and  _319
REMARK  128  A    between atoms: _319  and  _320
REMARK  129  A    between atoms: _323  and  _325
REMARK  130  A    between atoms: _325  and  _326
REMARK  131  A    between atoms: _325  and  _328
REMARK  132  A    between atoms: _328  and  _329
REMARK  133  A    between atoms: _332  and  _334
REMARK  134  A    between atoms: _334  and  _335
REMARK  135  A    between atoms: _334  and  _337
REMARK  136  A    between atoms: _337  and  _338
REMARK  137  A    between atoms: _341  and  _343
REMARK  138  A    between atoms: _343  and  _344
REMARK  139  A    between atoms: _343  and  _346
REMARK  140  A    between atoms: _349  and  _351
REMARK  141  A    between atoms: _351  and  _352
REMARK  142  A    between atoms: _351  and  _354
REMARK  143  A    between atoms: _354  and  _355
REMARK  144  A    between atoms: _355  and  _356
REMARK  145  A    between atoms: _356  and  _357
REMARK  146  A    between atoms: _357  and  _358
REMARK  147  A    between atoms: _362  and  _364
REMARK  148  A    between atoms: _364  and  _365
REMARK  149  A    between atoms: _364  and  _367
REMARK  150  A    between atoms: _367  and  _368
REMARK  151  A    between atoms: _368  and  _369
REMARK  152  A    between atoms: _371  and  _373
REMARK  153  A    between atoms: _373  and  _374
REMARK  154  A    between atoms: _373  and  _376
REMARK  155  A    between atoms: _376  and  _377
REMARK  156  A    between atoms: _380  and  _382
REMARK  157  A    between atoms: _382  and  _383
REMARK  158  A    between atoms: _385  and  _387
REMARK  159  A    between atoms: _387  and  _388
REMARK  160  A    between atoms: _390  and  _392
REMARK  161  A    between atoms: _392  and  _393
REMARK  162  A    between atoms: _392  and  _395
REMARK  163  A    between atoms: _395  and  _396
REMARK  164  A    between atoms: _399  and  _401
REMARK  165  A    between atoms: _401  and  _402
REMARK  166  A    between atoms: _404  and  _406
REMARK  167  A    between atoms: _406  and  _407
REMARK  168  A    between atoms: _409  and  _411
REMARK  169  A    between atoms: _411  and  _412
REMARK  170  A    between atoms: _411  and  _414
REMARK  171  A    between atoms: _414  and  _415
REMARK  172  A    between atoms: _421  and  _423
REMARK  173  A    between atoms: _423  and  _424
REMARK  174  A    between atoms: _423  and  _426
REMARK  175  A    between atoms: _426  and  _427
REMARK  176  A    between atoms: _431  and  _432
REMARK  177  A    between atoms: _437  and  _439
REMARK  178  A    between atoms: _439  and  _440
REMARK  179  A    between atoms: _439  and  _442
REMARK  180  A    between atoms: _445  and  _447
REMARK  181  A    between atoms: _447  and  _448
REMARK  182  A    between atoms: _447  and  _450
REMARK  183  A    between atoms: _450  and  _451
REMARK  184  A    between atoms: _456  and  _458
REMARK  185  A    between atoms: _458  and  _459
REMARK  186  A    between atoms: _458  and  _461
REMARK  187  A    between atoms: _461  and  _462
REMARK  188  A    between atoms: _465  and  _467
REMARK  189  A    between atoms: _467  and  _468
REMARK  190  A    between atoms: _467  and  _470
REMARK  191  A    between atoms: _470  and  _471
REMARK  192  A    between atoms: _474  and  _476
REMARK  193  A    between atoms: _476  and  _477
REMARK  194  A    between atoms: _479  and  _481
REMARK  195  A    between atoms: _481  and  _482
REMARK  196  A    between atoms: _481  and  _484
REMARK  197  A    between atoms: _484  and  _485
REMARK  198  A    between atoms: _485  and  _486
REMARK  199  A    between atoms: _486  and  _487
REMARK                            x       y       z     vdW  Elec       q    Type
REMARK                         _______ _______ _______ _____ _____    ______ ____
ROOT
ATOM      1  O   HOH     1      25.562  -8.365   8.215  0.00  0.00    +0.000 OA
ENDROOT
TORSDOF 0
REMARK  Name = ../refined-set-2016/2q54/2q54_pocket.pdb
REMARK  199 active torsions:
REMARK  status: ('A' for Active; 'I' for Inactive)
REMARK    1  A    between atoms: _1  and  _3
REMARK    2  A    between atoms: _3  and  _4
REMARK    3  A    between atoms: _3  and  _6
REMARK    4  A    between atoms: _6  and  _7
REMARK    5  A    between atoms: _7  and  _8
REMARK    6  A    between atoms: _8  and  _9
REMARK    7  A    between atoms: _18  and  _20
REMARK    8  A    between atoms: _20  and  _21
REMARK    9  A    between atoms: _20  and  _23
REMARK   10  A    between atoms: _23  and  _24
REMARK   11  A    between atoms: _27  and  _29
REMARK   12  A    between atoms: _29  and  _30
REMARK   13  A    between atoms: _29  and  _32
REMARK   14  A    between atoms: _32  and  _33
REMARK   15  A    between atoms: _36  and  _38
REMARK   16  A    between atoms: _38  and  _39
REMARK   17  A    between atoms: _38  and  _41
REMARK   18  A    between atoms: _41  and  _42
REMARK   19  A    between atoms: _45  and  _47
REMARK   20  A    between atoms: _47  and  _48
REMARK   21  A    between atoms: _47  and  _50
REMARK   22  A    between atoms: _50  and  _51
REMARK   23  A    between atoms: _54  and  _56
REMARK   24  A    between atoms: _56  and  _57
REMARK   25  A    between atoms: _59  and  _61
REMARK   26  A    between atoms: _61  and  _62
REMARK   27  A    between atoms: _65  and  _67
REMARK   28  A    between atoms: _67  and  _68
REMARK   29  A    between atoms: _67  and  _70
REMARK   30  A    between atoms: _70  and  _71
REMARK   31  A    between atoms: _74  and  _76
REMARK   32  A    between atoms: _76  and  _77
REMARK   33  A    between atoms: _76  and  _79
REMARK   34  A    between atoms: _79  and  _80
REMARK   35  A    between atoms: _83  and  _85
REMARK   36  A    between atoms: _85  and  _86
REMARK   37  A    between atoms: _85  and  _88
REMARK   38  A    between atoms: _88  and  _89
REMARK   39  A    between atoms: _92  and  _94
REMARK   40  A    between atoms: _94  and  _95
REMARK   41  A    between atoms: _94  and  _97
REMARK   42  A    between atoms: _100  and  _102
REMARK   43  A    between atoms: _102  and  _103
REMARK   44  A    between atoms: _102  and  _105
REMARK   45  A    between atoms: _105  and  _106
REMARK   46  A    between atoms: _109  and  _111
REMARK   47  A    between atoms: _111  and  _112
REMARK   48  A    between atoms: _114  and  _116
REMARK   49  A    between atoms: _116  and  _117
REMARK   50  A    between atoms: _119  and  _121
REMARK   51  A    between atoms: _121  and  _122
REMARK   52  A    between atoms: _121  and  _124
REMARK   53  A    between atoms: _124  and  _125
REMARK   54  A    between atoms: _128  and  _130
REMARK   55  A    between atoms: _130  and  _131
REMARK   56  A    between atoms: _133  and  _135
REMARK   57  A    between atoms: _135  and  _136
REMARK   58  A    between atoms: _138  and  _140
REMARK   59  A    between atoms: _140  and  _141
REMARK   60  A    between atoms: _140  and  _143
REMARK   61  A    between atoms: _143  and  _144
REMARK   62  A    between atoms: _150  and  _152
REMARK   63  A    between atoms: _152  and  _153
REMARK   64  A    between atoms: _152  and  _155
REMARK   65  A    between atoms: _155  and  _156
REMARK   66  A    between atoms: _159  and  _161
REMARK   67  A    between atoms: _161  and  _162
REMARK   68  A    between atoms: _161  and  _164
REMARK   69  A    between atoms: _164  and  _165
REMARK   70  A    between atoms: _169  and  _170
REMARK   71  A    between atoms: _175  and  _177
REMARK   72  A    between atoms: _177  and  _178
REMARK   73  A    between atoms: _177  and  _180
REMARK   74  A    between atoms: _180  and  _181
REMARK   75  A    between atoms: _185  and  _186
REMARK   76  A    between atoms: _191  and  _193
REMARK   77  A    between atoms: _193  and  _194
REMARK   78  A    between atoms: _193  and  _196
REMARK   79  A    between atoms: _199  and  _201
REMARK   80  A    between atoms: _201  and  _202
REMARK   81  A    between atoms: _201  and  _204
REMARK   82  A    between atoms: _204  and  _205
REMARK   83  A    between atoms: _210  and  _212
REMARK   84  A    between atoms: _212  and  _213
REMARK   85  A    between atoms: _212  and  _215
REMARK   86  A    between atoms: _215  and  _216
REMARK   87  A    between atoms: _219  and  _221
REMARK   88  A    between atoms: _221  and  _222
REMARK   89  A    between atoms: _221  and  _224
REMARK   90  A    between atoms: _224  and  _225
REMARK   91  A    between atoms: _228  and  _230
REMARK   92  A    between atoms: _230  and  _231
REMARK   93  A    between atoms: _233  and  _235
REMARK   94  A    between atoms: _235  and  _236
REMARK   95  A    between atoms: _235  and  _238
REMARK   96  A    between atoms: _238  and  _239
REMARK   97  A    between atoms: _239  and  _240
REMARK   98  A    between atoms: _240  and  _241
REMARK   99  A    between atoms: _250  and  _252
REMARK  100  A    between atoms: _252  and  _253
REMARK  101  A    between atoms: _252  and  _255
REMARK  102  A    between atoms: _255  and  _256
REMARK  103  A    between atoms: _256  and  _257
REMARK  104  A    between atoms: _257  and  _258
REMARK  105  A    between atoms: _267  and  _269
REMARK  106  A    between atoms: _269  and  _270
REMARK  107  A    between atoms: _269  and  _272
REMARK  108  A    between atoms: _272  and  _273
REMARK  109  A    between atoms: _276  and  _278
REMARK  110  A    between atoms: _278  and  _279
REMARK  111  A    between atoms: _278  and  _281
REMARK  112  A    between atoms: _281  and  _282
REMARK  113  A    between atoms: _285  and  _287
REMARK  114  A    between atoms: _287  and  _288
REMARK  115  A    between atoms: _287  and  _290
REMARK  116  A    between atoms: _290  and  _291
REMARK  117  A    between atoms: _294  and  _296
REMARK  118  A    between atoms: _296  and  _297
REMARK  119  A    between atoms: _296  and  _299
REMARK  120  A    between atoms: _299  and  _300
REMARK  121  A    between atoms: _303  and  _305
REMARK  122  A    between atoms: _305  and  _306
REMARK  123  A    between atoms: _308  and  _310
REMARK  124  A    between atoms: _310  and  _311
REMARK  125  A    between atoms: _314  and  _316
REMARK  126  A    between atoms: _316  and  _317
REMARK  127  A    between atoms: _316  and  _319
REMARK  128  A    between atoms: _319  and  _320
REMARK  129  A    between atoms: _323  and  _325
REMARK  130  A    between atoms: _325  and  _326
REMARK  131  A    between atoms: _325  and  _328
REMARK  132  A    between atoms: _328  and  _329
REMARK  133  A    between atoms: _332  and  _334
REMARK  134  A    between atoms: _334  and  _335
REMARK  135  A    between atoms: _334  and  _337
REMARK  136  A    between atoms: _337  and  _338
REMARK  137  A    between atoms: _341  and  _343
REMARK  138  A    between atoms: _343  and  _344
REMARK  139  A    between atoms: _343  and  _346
REMARK  140  A    between atoms: _349  and  _351
REMARK  141  A    between atoms: _351  and  _352
REMARK  142  A    between atoms: _351  and  _354
REMARK  143  A    between atoms: _354  and  _355
REMARK  144  A    between atoms: _355  and  _356
REMARK  145  A    between atoms: _356  and  _357
REMARK  146  A    between atoms: _357  and  _358
REMARK  147  A    between atoms: _362  and  _364
REMARK  148  A    between atoms: _364  and  _365
REMARK  149  A    between atoms: _364  and  _367
REMARK  150  A    between atoms: _367  and  _368
REMARK  151  A    between atoms: _368  and  _369
REMARK  152  A    between atoms: _371  and  _373
REMARK  153  A    between atoms: _373  and  _374
REMARK  154  A    between atoms: _373  and  _376
REMARK  155  A    between atoms: _376  and  _377
REMARK  156  A    between atoms: _380  and  _382
REMARK  157  A    between atoms: _382  and  _383
REMARK  158  A    between atoms: _385  and  _387
REMARK  159  A    between atoms: _387  and  _388
REMARK  160  A    between atoms: _390  and  _392
REMARK  161  A    between atoms: _392  and  _393
REMARK  162  A    between atoms: _392  and  _395
REMARK  163  A    between atoms: _395  and  _396
REMARK  164  A    between atoms: _399  and  _401
REMARK  165  A    between atoms: _401  and  _402
REMARK  166  A    between atoms: _404  and  _406
REMARK  167  A    between atoms: _406  and  _407
REMARK  168  A    between atoms: _409  and  _411
REMARK  169  A    between atoms: _411  and  _412
REMARK  170  A    between atoms: _411  and  _414
REMARK  171  A    between atoms: _414  and  _415
REMARK  172  A    between atoms: _421  and  _423
REMARK  173  A    between atoms: _423  and  _424
REMARK  174  A    between atoms: _423  and  _426
REMARK  175  A    between atoms: _426  and  _427
REMARK  176  A    between atoms: _431  and  _432
REMARK  177  A    between atoms: _437  and  _439
REMARK  178  A    between atoms: _439  and  _440
REMARK  179  A    between atoms: _439  and  _442
REMARK  180  A    between atoms: _445  and  _447
REMARK  181  A    between atoms: _447  and  _448
REMARK  182  A    between atoms: _447  and  _450
REMARK  183  A    between atoms: _450  and  _451
REMARK  184  A    between atoms: _456  and  _458
REMARK  185  A    between atoms: _458  and  _459
REMARK  186  A    between atoms: _458  and  _461
REMARK  187  A    between atoms: _461  and  _462
REMARK  188  A    between atoms: _465  and  _467
REMARK  189  A    between atoms: _467  and  _468
REMARK  190  A    between atoms: _467  and  _470
REMARK  191  A    between atoms: _470  and  _471
REMARK  192  A    between atoms: _474  and  _476
REMARK  193  A    between atoms: _476  and  _477
REMARK  194  A    between atoms: _479  and  _481
REMARK  195  A    between atoms: _481  and  _482
REMARK  196  A    between atoms: _481  and  _484
REMARK  197  A    between atoms: _484  and  _485
REMARK  198  A    between atoms: _485  and  _486
REMARK  199  A    between atoms: _486  and  _487
REMARK                            x       y       z     vdW  Elec       q    Type
REMARK                         _______ _______ _______ _____ _____    ______ ____
ROOT
ATOM      1  O   HOH     1      18.391   2.006  24.806  0.00  0.00    +0.000 OA
ENDROOT
TORSDOF 0
REMARK  Name = ../refined-set-2016/2q54/2q54_pocket.pdb
REMARK  199 active torsions:
REMARK  status: ('A' for Active; 'I' for Inactive)
REMARK    1  A    between atoms: _1  and  _3
REMARK    2  A    between atoms: _3  and  _4
REMARK    3  A    between atoms: _3  and  _6
REMARK    4  A    between atoms: _6  and  _7
REMARK    5  A    between atoms: _7  and  _8
REMARK    6  A    between atoms: _8  and  _9
REMARK    7  A    between atoms: _18  and  _20
REMARK    8  A    between atoms: _20  and  _21
REMARK    9  A    between atoms: _20  and  _23
REMARK   10  A    between atoms: _23  and  _24
REMARK   11  A    between atoms: _27  and  _29
REMARK   12  A    between atoms: _29  and  _30
REMARK   13  A    between atoms: _29  and  _32
REMARK   14  A    between atoms: _32  and  _33
REMARK   15  A    between atoms: _36  and  _38
REMARK   16  A    between atoms: _38  and  _39
REMARK   17  A    between atoms: _38  and  _41
REMARK   18  A    between atoms: _41  and  _42
REMARK   19  A    between atoms: _45  and  _47
REMARK   20  A    between atoms: _47  and  _48
REMARK   21  A    between atoms: _47  and  _50
REMARK   22  A    between atoms: _50  and  _51
REMARK   23  A    between atoms: _54  and  _56
REMARK   24  A    between atoms: _56  and  _57
REMARK   25  A    between atoms: _59  and  _61
REMARK   26  A    between atoms: _61  and  _62
REMARK   27  A    between atoms: _65  and  _67
REMARK   28  A    between atoms: _67  and  _68
REMARK   29  A    between atoms: _67  and  _70
REMARK   30  A    between atoms: _70  and  _71
REMARK   31  A    between atoms: _74  and  _76
REMARK   32  A    between atoms: _76  and  _77
REMARK   33  A    between atoms: _76  and  _79
REMARK   34  A    between atoms: _79  and  _80
REMARK   35  A    between atoms: _83  and  _85
REMARK   36  A    between atoms: _85  and  _86
REMARK   37  A    between atoms: _85  and  _88
REMARK   38  A    between atoms: _88  and  _89
REMARK   39  A    between atoms: _92  and  _94
REMARK   40  A    between atoms: _94  and  _95
REMARK   41  A    between atoms: _94  and  _97
REMARK   42  A    between atoms: _100  and  _102
REMARK   43  A    between atoms: _102  and  _103
REMARK   44  A    between atoms: _102  and  _105
REMARK   45  A    between atoms: _105  and  _106
REMARK   46  A    between atoms: _109  and  _111
REMARK   47  A    between atoms: _111  and  _112
REMARK   48  A    between atoms: _114  and  _116
REMARK   49  A    between atoms: _116  and  _117
REMARK   50  A    between atoms: _119  and  _121
REMARK   51  A    between atoms: _121  and  _122
REMARK   52  A    between atoms: _121  and  _124
REMARK   53  A    between atoms: _124  and  _125
REMARK   54  A    between atoms: _128  and  _130
REMARK   55  A    between atoms: _130  and  _131
REMARK   56  A    between atoms: _133  and  _135
REMARK   57  A    between atoms: _135  and  _136
REMARK   58  A    between atoms: _138  and  _140
REMARK   59  A    between atoms: _140  and  _141
REMARK   60  A    between atoms: _140  and  _143
REMARK   61  A    between atoms: _143  and  _144
REMARK   62  A    between atoms: _150  and  _152
REMARK   63  A    between atoms: _152  and  _153
REMARK   64  A    between atoms: _152  and  _155
REMARK   65  A    between atoms: _155  and  _156
REMARK   66  A    between atoms: _159  and  _161
REMARK   67  A    between atoms: _161  and  _162
REMARK   68  A    between atoms: _161  and  _164
REMARK   69  A    between atoms: _164  and  _165
REMARK   70  A    between atoms: _169  and  _170
REMARK   71  A    between atoms: _175  and  _177
REMARK   72  A    between atoms: _177  and  _178
REMARK   73  A    between atoms: _177  and  _180
REMARK   74  A    between atoms: _180  and  _181
REMARK   75  A    between atoms: _185  and  _186
REMARK   76  A    between atoms: _191  and  _193
REMARK   77  A    between atoms: _193  and  _194
REMARK   78  A    between atoms: _193  and  _196
REMARK   79  A    between atoms: _199  and  _201
REMARK   80  A    between atoms: _201  and  _202
REMARK   81  A    between atoms: _201  and  _204
REMARK   82  A    between atoms: _204  and  _205
REMARK   83  A    between atoms: _210  and  _212
REMARK   84  A    between atoms: _212  and  _213
REMARK   85  A    between atoms: _212  and  _215
REMARK   86  A    between atoms: _215  and  _216
REMARK   87  A    between atoms: _219  and  _221
REMARK   88  A    between atoms: _221  and  _222
REMARK   89  A    between atoms: _221  and  _224
REMARK   90  A    between atoms: _224  and  _225
REMARK   91  A    between atoms: _228  and  _230
REMARK   92  A    between atoms: _230  and  _231
REMARK   93  A    between atoms: _233  and  _235
REMARK   94  A    between atoms: _235  and  _236
REMARK   95  A    between atoms: _235  and  _238
REMARK   96  A    between atoms: _238  and  _239
REMARK   97  A    between atoms: _239  and  _240
REMARK   98  A    between atoms: _240  and  _241
REMARK   99  A    between atoms: _250  and  _252
REMARK  100  A    between atoms: _252  and  _253
REMARK  101  A    between atoms: _252  and  _255
REMARK  102  A    between atoms: _255  and  _256
REMARK  103  A    between atoms: _256  and  _257
REMARK  104  A    between atoms: _257  and  _258
REMARK  105  A    between atoms: _267  and  _269
REMARK  106  A    between atoms: _269  and  _270
REMARK  107  A    between atoms: _269  and  _272
REMARK  108  A    between atoms: _272  and  _273
REMARK  109  A    between atoms: _276  and  _278
REMARK  110  A    between atoms: _278  and  _279
REMARK  111  A    between atoms: _278  and  _281
REMARK  112  A    between atoms: _281  and  _282
REMARK  113  A    between atoms: _285  and  _287
REMARK  114  A    between atoms: _287  and  _288
REMARK  115  A    between atoms: _287  and  _290
REMARK  116  A    between atoms: _290  and  _291
REMARK  117  A    between atoms: _294  and  _296
REMARK  118  A    between atoms: _296  and  _297
REMARK  119  A    between atoms: _296  and  _299
REMARK  120  A    between atoms: _299  and  _300
REMARK  121  A    between atoms: _303  and  _305
REMARK  122  A    between atoms: _305  and  _306
REMARK  123  A    between atoms: _308  and  _310
REMARK  124  A    between atoms: _310  and  _311
REMARK  125  A    between atoms: _314  and  _316
REMARK  126  A    between atoms: _316  and  _317
REMARK  127  A    between atoms: _316  and  _319
REMARK  128  A    between atoms: _319  and  _320
REMARK  129  A    between atoms: _323  and  _325
REMARK  130  A    between atoms: _325  and  _326
REMARK  131  A    between atoms: _325  and  _328
REMARK  132  A    between atoms: _328  and  _329
REMARK  133  A    between atoms: _332  and  _334
REMARK  134  A    between atoms: _334  and  _335
REMARK  135  A    between atoms: _334  and  _337
REMARK  136  A    between atoms: _337  and  _338
REMARK  137  A    between atoms: _341  and  _343
REMARK  138  A    between atoms: _343  and  _344
REMARK  139  A    between atoms: _343  and  _346
REMARK  140  A    between atoms: _349  and  _351
REMARK  141  A    between atoms: _351  and  _352
REMARK  142  A    between atoms: _351  and  _354
REMARK  143  A    between atoms: _354  and  _355
REMARK  144  A    between atoms: _355  and  _356
REMARK  145  A    between atoms: _356  and  _357
REMARK  146  A    between atoms: _357  and  _358
REMARK  147  A    between atoms: _362  and  _364
REMARK  148  A    between atoms: _364  and  _365
REMARK  149  A    between atoms: _364  and  _367
REMARK  150  A    between atoms: _367  and  _368
REMARK  151  A    between atoms: _368  and  _369
REMARK  152  A    between atoms: _371  and  _373
REMARK  153  A    between atoms: _373  and  _374
REMARK  154  A    between atoms: _373  and  _376
REMARK  155  A    between atoms: _376  and  _377
REMARK  156  A    between atoms: _380  and  _382
REMARK  157  A    between atoms: _382  and  _383
REMARK  158  A    between atoms: _385  and  _387
REMARK  159  A    between atoms: _387  and  _388
REMARK  160  A    between atoms: _390  and  _392
REMARK  161  A    between atoms: _392  and  _393
REMARK  162  A    between atoms: _392  and  _395
REMARK  163  A    between atoms: _395  and  _396
REMARK  164  A    between atoms: _399  and  _401
REMARK  165  A    between atoms: _401  and  _402
REMARK  166  A    between atoms: _404  and  _406
REMARK  167  A    between atoms: _406  and  _407
REMARK  168  A    between atoms: _409  and  _411
REMARK  169  A    between atoms: _411  and  _412
REMARK  170  A    between atoms: _411  and  _414
REMARK  171  A    between atoms: _414  and  _415
REMARK  172  A    between atoms: _421  and  _423
REMARK  173  A    between atoms: _423  and  _424
REMARK  174  A    between atoms: _423  and  _426
REMARK  175  A    between atoms: _426  and  _427
REMARK  176  A    between atoms: _431  and  _432
REMARK  177  A    between atoms: _437  and  _439
REMARK  178  A    between atoms: _439  and  _440
REMARK  179  A    between atoms: _439  and  _442
REMARK  180  A    between atoms: _445  and  _447
REMARK  181  A    between atoms: _447  and  _448
REMARK  182  A    between atoms: _447  and  _450
REMARK  183  A    between atoms: _450  and  _451
REMARK  184  A    between atoms: _456  and  _458
REMARK  185  A    between atoms: _458  and  _459
REMARK  186  A    between atoms: _458  and  _461
REMARK  187  A    between atoms: _461  and  _462
REMARK  188  A    between atoms: _465  and  _467
REMARK  189  A    between atoms: _467  and  _468
REMARK  190  A    between atoms: _467  and  _470
REMARK  191  A    between atoms: _470  and  _471
REMARK  192  A    between atoms: _474  and  _476
REMARK  193  A    between atoms: _476  and  _477
REMARK  194  A    between atoms: _479  and  _481
REMARK  195  A    between atoms: _481  and  _482
REMARK  196  A    between atoms: _481  and  _484
REMARK  197  A    between atoms: _484  and  _485
REMARK  198  A    between atoms: _485  and  _486
REMARK  199  A    between atoms: _486  and  _487
REMARK                            x       y       z     vdW  Elec       q    Type
REMARK                         _______ _______ _______ _____ _____    ______ ____
ROOT
ATOM      1  O   HOH     1      20.207  -3.347   7.329  0.00  0.00    +0.000 OA
ENDROOT
TORSDOF 0
REMARK  Name = ../refined-set-2016/2q54/2q54_pocket.pdb
REMARK  199 active torsions:
REMARK  status: ('A' for Active; 'I' for Inactive)
REMARK    1  A    between atoms: _1  and  _3
REMARK    2  A    between atoms: _3  and  _4
REMARK    3  A    between atoms: _3  and  _6
REMARK    4  A    between atoms: _6  and  _7
REMARK    5  A    between atoms: _7  and  _8
REMARK    6  A    between atoms: _8  and  _9
REMARK    7  A    between atoms: _18  and  _20
REMARK    8  A    between atoms: _20  and  _21
REMARK    9  A    between atoms: _20  and  _23
REMARK   10  A    between atoms: _23  and  _24
REMARK   11  A    between atoms: _27  and  _29
REMARK   12  A    between atoms: _29  and  _30
REMARK   13  A    between atoms: _29  and  _32
REMARK   14  A    between atoms: _32  and  _33
REMARK   15  A    between atoms: _36  and  _38
REMARK   16  A    between atoms: _38  and  _39
REMARK   17  A    between atoms: _38  and  _41
REMARK   18  A    between atoms: _41  and  _42
REMARK   19  A    between atoms: _45  and  _47
REMARK   20  A    between atoms: _47  and  _48
REMARK   21  A    between atoms: _47  and  _50
REMARK   22  A    between atoms: _50  and  _51
REMARK   23  A    between atoms: _54  and  _56
REMARK   24  A    between atoms: _56  and  _57
REMARK   25  A    between atoms: _59  and  _61
REMARK   26  A    between atoms: _61  and  _62
REMARK   27  A    between atoms: _65  and  _67
REMARK   28  A    between atoms: _67  and  _68
REMARK   29  A    between atoms: _67  and  _70
REMARK   30  A    between atoms: _70  and  _71
REMARK   31  A    between atoms: _74  and  _76
REMARK   32  A    between atoms: _76  and  _77
REMARK   33  A    between atoms: _76  and  _79
REMARK   34  A    between atoms: _79  and  _80
REMARK   35  A    between atoms: _83  and  _85
REMARK   36  A    between atoms: _85  and  _86
REMARK   37  A    between atoms: _85  and  _88
REMARK   38  A    between atoms: _88  and  _89
REMARK   39  A    between atoms: _92  and  _94
REMARK   40  A    between atoms: _94  and  _95
REMARK   41  A    between atoms: _94  and  _97
REMARK   42  A    between atoms: _100  and  _102
REMARK   43  A    between atoms: _102  and  _103
REMARK   44  A    between atoms: _102  and  _105
REMARK   45  A    between atoms: _105  and  _106
REMARK   46  A    between atoms: _109  and  _111
REMARK   47  A    between atoms: _111  and  _112
REMARK   48  A    between atoms: _114  and  _116
REMARK   49  A    between atoms: _116  and  _117
REMARK   50  A    between atoms: _119  and  _121
REMARK   51  A    between atoms: _121  and  _122
REMARK   52  A    between atoms: _121  and  _124
REMARK   53  A    between atoms: _124  and  _125
REMARK   54  A    between atoms: _128  and  _130
REMARK   55  A    between atoms: _130  and  _131
REMARK   56  A    between atoms: _133  and  _135
REMARK   57  A    between atoms: _135  and  _136
REMARK   58  A    between atoms: _138  and  _140
REMARK   59  A    between atoms: _140  and  _141
REMARK   60  A    between atoms: _140  and  _143
REMARK   61  A    between atoms: _143  and  _144
REMARK   62  A    between atoms: _150  and  _152
REMARK   63  A    between atoms: _152  and  _153
REMARK   64  A    between atoms: _152  and  _155
REMARK   65  A    between atoms: _155  and  _156
REMARK   66  A    between atoms: _159  and  _161
REMARK   67  A    between atoms: _161  and  _162
REMARK   68  A    between atoms: _161  and  _164
REMARK   69  A    between atoms: _164  and  _165
REMARK   70  A    between atoms: _169  and  _170
REMARK   71  A    between atoms: _175  and  _177
REMARK   72  A    between atoms: _177  and  _178
REMARK   73  A    between atoms: _177  and  _180
REMARK   74  A    between atoms: _180  and  _181
REMARK   75  A    between atoms: _185  and  _186
REMARK   76  A    between atoms: _191  and  _193
REMARK   77  A    between atoms: _193  and  _194
REMARK   78  A    between atoms: _193  and  _196
REMARK   79  A    between atoms: _199  and  _201
REMARK   80  A    between atoms: _201  and  _202
REMARK   81  A    between atoms: _201  and  _204
REMARK   82  A    between atoms: _204  and  _205
REMARK   83  A    between atoms: _210  and  _212
REMARK   84  A    between atoms: _212  and  _213
REMARK   85  A    between atoms: _212  and  _215
REMARK   86  A    between atoms: _215  and  _216
REMARK   87  A    between atoms: _219  and  _221
REMARK   88  A    between atoms: _221  and  _222
REMARK   89  A    between atoms: _221  and  _224
REMARK   90  A    between atoms: _224  and  _225
REMARK   91  A    between atoms: _228  and  _230
REMARK   92  A    between atoms: _230  and  _231
REMARK   93  A    between atoms: _233  and  _235
REMARK   94  A    between atoms: _235  and  _236
REMARK   95  A    between atoms: _235  and  _238
REMARK   96  A    between atoms: _238  and  _239
REMARK   97  A    between atoms: _239  and  _240
REMARK   98  A    between atoms: _240  and  _241
REMARK   99  A    between atoms: _250  and  _252
REMARK  100  A    between atoms: _252  and  _253
REMARK  101  A    between atoms: _252  and  _255
REMARK  102  A    between atoms: _255  and  _256
REMARK  103  A    between atoms: _256  and  _257
REMARK  104  A    between atoms: _257  and  _258
REMARK  105  A    between atoms: _267  and  _269
REMARK  106  A    between atoms: _269  and  _270
REMARK  107  A    between atoms: _269  and  _272
REMARK  108  A    between atoms: _272  and  _273
REMARK  109  A    between atoms: _276  and  _278
REMARK  110  A    between atoms: _278  and  _279
REMARK  111  A    between atoms: _278  and  _281
REMARK  112  A    between atoms: _281  and  _282
REMARK  113  A    between atoms: _285  and  _287
REMARK  114  A    between atoms: _287  and  _288
REMARK  115  A    between atoms: _287  and  _290
REMARK  116  A    between atoms: _290  and  _291
REMARK  117  A    between atoms: _294  and  _296
REMARK  118  A    between atoms: _296  and  _297
REMARK  119  A    between atoms: _296  and  _299
REMARK  120  A    between atoms: _299  and  _300
REMARK  121  A    between atoms: _303  and  _305
REMARK  122  A    between atoms: _305  and  _306
REMARK  123  A    between atoms: _308  and  _310
REMARK  124  A    between atoms: _310  and  _311
REMARK  125  A    between atoms: _314  and  _316
REMARK  126  A    between atoms: _316  and  _317
REMARK  127  A    between atoms: _316  and  _319
REMARK  128  A    between atoms: _319  and  _320
REMARK  129  A    between atoms: _323  and  _325
REMARK  130  A    between atoms: _325  and  _326
REMARK  131  A    between atoms: _325  and  _328
REMARK  132  A    between atoms: _328  and  _329
REMARK  133  A    between atoms: _332  and  _334
REMARK  134  A    between atoms: _334  and  _335
REMARK  135  A    between atoms: _334  and  _337
REMARK  136  A    between atoms: _337  and  _338
REMARK  137  A    between atoms: _341  and  _343
REMARK  138  A    between atoms: _343  and  _344
REMARK  139  A    between atoms: _343  and  _346
REMARK  140  A    between atoms: _349  and  _351
REMARK  141  A    between atoms: _351  and  _352
REMARK  142  A    between atoms: _351  and  _354
REMARK  143  A    between atoms: _354  and  _355
REMARK  144  A    between atoms: _355  and  _356
REMARK  145  A    between atoms: _356  and  _357
REMARK  146  A    between atoms: _357  and  _358
REMARK  147  A    between atoms: _362  and  _364
REMARK  148  A    between atoms: _364  and  _365
REMARK  149  A    between atoms: _364  and  _367
REMARK  150  A    between atoms: _367  and  _368
REMARK  151  A    between atoms: _368  and  _369
REMARK  152  A    between atoms: _371  and  _373
REMARK  153  A    between atoms: _373  and  _374
REMARK  154  A    between atoms: _373  and  _376
REMARK  155  A    between atoms: _376  and  _377
REMARK  156  A    between atoms: _380  and  _382
REMARK  157  A    between atoms: _382  and  _383
REMARK  158  A    between atoms: _385  and  _387
REMARK  159  A    between atoms: _387  and  _388
REMARK  160  A    between atoms: _390  and  _392
REMARK  161  A    between atoms: _392  and  _393
REMARK  162  A    between atoms: _392  and  _395
REMARK  163  A    between atoms: _395  and  _396
REMARK  164  A    between atoms: _399  and  _401
REMARK  165  A    between atoms: _401  and  _402
REMARK  166  A    between atoms: _404  and  _406
REMARK  167  A    between atoms: _406  and  _407
REMARK  168  A    between atoms: _409  and  _411
REMARK  169  A    between atoms: _411  and  _412
REMARK  170  A    between atoms: _411  and  _414
REMARK  171  A    between atoms: _414  and  _415
REMARK  172  A    between atoms: _421  and  _423
REMARK  173  A    between atoms: _423  and  _424
REMARK  174  A    between atoms: _423  and  _426
REMARK  175  A    between atoms: _426  and  _427
REMARK  176  A    between atoms: _431  and  _432
REMARK  177  A    between atoms: _437  and  _439
REMARK  178  A    between atoms: _439  and  _440
REMARK  179  A    between atoms: _439  and  _442
REMARK  180  A    between atoms: _445  and  _447
REMARK  181  A    between atoms: _447  and  _448
REMARK  182  A    between atoms: _447  and  _450
REMARK  183  A    between atoms: _450  and  _451
REMARK  184  A    between atoms: _456  and  _458
REMARK  185  A    between atoms: _458  and  _459
REMARK  186  A    between atoms: _458  and  _461
REMARK  187  A    between atoms: _461  and  _462
REMARK  188  A    between atoms: _465  and  _467
REMARK  189  A    between atoms: _467  and  _468
REMARK  190  A    between atoms: _467  and  _470
REMARK  191  A    between atoms: _470  and  _471
REMARK  192  A    between atoms: _474  and  _476
REMARK  193  A    between atoms: _476  and  _477
REMARK  194  A    between atoms: _479  and  _481
REMARK  195  A    between atoms: _481  and  _482
REMARK  196  A    between atoms: _481  and  _484
REMARK  197  A    between atoms: _484  and  _485
REMARK  198  A    between atoms: _485  and  _486
REMARK  199  A    between atoms: _486  and  _487
REMARK                            x       y       z     vdW  Elec       q    Type
REMARK                         _______ _______ _______ _____ _____    ______ ____
ROOT
ATOM      1  O   HOH     1      20.212  -3.187  18.579  0.00  0.00    +0.000 OA
ENDROOT
TORSDOF 0
REMARK  Name = ../refined-set-2016/2q54/2q54_pocket.pdb
REMARK  199 active torsions:
REMARK  status: ('A' for Active; 'I' for Inactive)
REMARK    1  A    between atoms: _1  and  _3
REMARK    2  A    between atoms: _3  and  _4
REMARK    3  A    between atoms: _3  and  _6
REMARK    4  A    between atoms: _6  and  _7
REMARK    5  A    between atoms: _7  and  _8
REMARK    6  A    between atoms: _8  and  _9
REMARK    7  A    between atoms: _18  and  _20
REMARK    8  A    between atoms: _20  and  _21
REMARK    9  A    between atoms: _20  and  _23
REMARK   10  A    between atoms: _23  and  _24
REMARK   11  A    between atoms: _27  and  _29
REMARK   12  A    between atoms: _29  and  _30
REMARK   13  A    between atoms: _29  and  _32
REMARK   14  A    between atoms: _32  and  _33
REMARK   15  A    between atoms: _36  and  _38
REMARK   16  A    between atoms: _38  and  _39
REMARK   17  A    between atoms: _38  and  _41
REMARK   18  A    between atoms: _41  and  _42
REMARK   19  A    between atoms: _45  and  _47
REMARK   20  A    between atoms: _47  and  _48
REMARK   21  A    between atoms: _47  and  _50
REMARK   22  A    between atoms: _50  and  _51
REMARK   23  A    between atoms: _54  and  _56
REMARK   24  A    between atoms: _56  and  _57
REMARK   25  A    between atoms: _59  and  _61
REMARK   26  A    between atoms: _61  and  _62
REMARK   27  A    between atoms: _65  and  _67
REMARK   28  A    between atoms: _67  and  _68
REMARK   29  A    between atoms: _67  and  _70
REMARK   30  A    between atoms: _70  and  _71
REMARK   31  A    between atoms: _74  and  _76
REMARK   32  A    between atoms: _76  and  _77
REMARK   33  A    between atoms: _76  and  _79
REMARK   34  A    between atoms: _79  and  _80
REMARK   35  A    between atoms: _83  and  _85
REMARK   36  A    between atoms: _85  and  _86
REMARK   37  A    between atoms: _85  and  _88
REMARK   38  A    between atoms: _88  and  _89
REMARK   39  A    between atoms: _92  and  _94
REMARK   40  A    between atoms: _94  and  _95
REMARK   41  A    between atoms: _94  and  _97
REMARK   42  A    between atoms: _100  and  _102
REMARK   43  A    between atoms: _102  and  _103
REMARK   44  A    between atoms: _102  and  _105
REMARK   45  A    between atoms: _105  and  _106
REMARK   46  A    between atoms: _109  and  _111
REMARK   47  A    between atoms: _111  and  _112
REMARK   48  A    between atoms: _114  and  _116
REMARK   49  A    between atoms: _116  and  _117
REMARK   50  A    between atoms: _119  and  _121
REMARK   51  A    between atoms: _121  and  _122
REMARK   52  A    between atoms: _121  and  _124
REMARK   53  A    between atoms: _124  and  _125
REMARK   54  A    between atoms: _128  and  _130
REMARK   55  A    between atoms: _130  and  _131
REMARK   56  A    between atoms: _133  and  _135
REMARK   57  A    between atoms: _135  and  _136
REMARK   58  A    between atoms: _138  and  _140
REMARK   59  A    between atoms: _140  and  _141
REMARK   60  A    between atoms: _140  and  _143
REMARK   61  A    between atoms: _143  and  _144
REMARK   62  A    between atoms: _150  and  _152
REMARK   63  A    between atoms: _152  and  _153
REMARK   64  A    between atoms: _152  and  _155
REMARK   65  A    between atoms: _155  and  _156
REMARK   66  A    between atoms: _159  and  _161
REMARK   67  A    between atoms: _161  and  _162
REMARK   68  A    between atoms: _161  and  _164
REMARK   69  A    between atoms: _164  and  _165
REMARK   70  A    between atoms: _169  and  _170
REMARK   71  A    between atoms: _175  and  _177
REMARK   72  A    between atoms: _177  and  _178
REMARK   73  A    between atoms: _177  and  _180
REMARK   74  A    between atoms: _180  and  _181
REMARK   75  A    between atoms: _185  and  _186
REMARK   76  A    between atoms: _191  and  _193
REMARK   77  A    between atoms: _193  and  _194
REMARK   78  A    between atoms: _193  and  _196
REMARK   79  A    between atoms: _199  and  _201
REMARK   80  A    between atoms: _201  and  _202
REMARK   81  A    between atoms: _201  and  _204
REMARK   82  A    between atoms: _204  and  _205
REMARK   83  A    between atoms: _210  and  _212
REMARK   84  A    between atoms: _212  and  _213
REMARK   85  A    between atoms: _212  and  _215
REMARK   86  A    between atoms: _215  and  _216
REMARK   87  A    between atoms: _219  and  _221
REMARK   88  A    between atoms: _221  and  _222
REMARK   89  A    between atoms: _221  and  _224
REMARK   90  A    between atoms: _224  and  _225
REMARK   91  A    between atoms: _228  and  _230
REMARK   92  A    between atoms: _230  and  _231
REMARK   93  A    between atoms: _233  and  _235
REMARK   94  A    between atoms: _235  and  _236
REMARK   95  A    between atoms: _235  and  _238
REMARK   96  A    between atoms: _238  and  _239
REMARK   97  A    between atoms: _239  and  _240
REMARK   98  A    between atoms: _240  and  _241
REMARK   99  A    between atoms: _250  and  _252
REMARK  100  A    between atoms: _252  and  _253
REMARK  101  A    between atoms: _252  and  _255
REMARK  102  A    between atoms: _255  and  _256
REMARK  103  A    between atoms: _256  and  _257
REMARK  104  A    between atoms: _257  and  _258
REMARK  105  A    between atoms: _267  and  _269
REMARK  106  A    between atoms: _269  and  _270
REMARK  107  A    between atoms: _269  and  _272
REMARK  108  A    between atoms: _272  and  _273
REMARK  109  A    between atoms: _276  and  _278
REMARK  110  A    between atoms: _278  and  _279
REMARK  111  A    between atoms: _278  and  _281
REMARK  112  A    between atoms: _281  and  _282
REMARK  113  A    between atoms: _285  and  _287
REMARK  114  A    between atoms: _287  and  _288
REMARK  115  A    between atoms: _287  and  _290
REMARK  116  A    between atoms: _290  and  _291
REMARK  117  A    between atoms: _294  and  _296
REMARK  118  A    between atoms: _296  and  _297
REMARK  119  A    between atoms: _296  and  _299
REMARK  120  A    between atoms: _299  and  _300
REMARK  121  A    between atoms: _303  and  _305
REMARK  122  A    between atoms: _305  and  _306
REMARK  123  A    between atoms: _308  and  _310
REMARK  124  A    between atoms: _310  and  _311
REMARK  125  A    between atoms: _314  and  _316
REMARK  126  A    between atoms: _316  and  _317
REMARK  127  A    between atoms: _316  and  _319
REMARK  128  A    between atoms: _319  and  _320
REMARK  129  A    between atoms: _323  and  _325
REMARK  130  A    between atoms: _325  and  _326
REMARK  131  A    between atoms: _325  and  _328
REMARK  132  A    between atoms: _328  and  _329
REMARK  133  A    between atoms: _332  and  _334
REMARK  134  A    between atoms: _334  and  _335
REMARK  135  A    between atoms: _334  and  _337
REMARK  136  A    between atoms: _337  and  _338
REMARK  137  A    between atoms: _341  and  _343
REMARK  138  A    between atoms: _343  and  _344
REMARK  139  A    between atoms: _343  and  _346
REMARK  140  A    between atoms: _349  and  _351
REMARK  141  A    between atoms: _351  and  _352
REMARK  142  A    between atoms: _351  and  _354
REMARK  143  A    between atoms: _354  and  _355
REMARK  144  A    between atoms: _355  and  _356
REMARK  145  A    between atoms: _356  and  _357
REMARK  146  A    between atoms: _357  and  _358
REMARK  147  A    between atoms: _362  and  _364
REMARK  148  A    between atoms: _364  and  _365
REMARK  149  A    between atoms: _364  and  _367
REMARK  150  A    between atoms: _367  and  _368
REMARK  151  A    between atoms: _368  and  _369
REMARK  152  A    between atoms: _371  and  _373
REMARK  153  A    between atoms: _373  and  _374
REMARK  154  A    between atoms: _373  and  _376
REMARK  155  A    between atoms: _376  and  _377
REMARK  156  A    between atoms: _380  and  _382
REMARK  157  A    between atoms: _382  and  _383
REMARK  158  A    between atoms: _385  and  _387
REMARK  159  A    between atoms: _387  and  _388
REMARK  160  A    between atoms: _390  and  _392
REMARK  161  A    between atoms: _392  and  _393
REMARK  162  A    between atoms: _392  and  _395
REMARK  163  A    between atoms: _395  and  _396
REMARK  164  A    between atoms: _399  and  _401
REMARK  165  A    between atoms: _401  and  _402
REMARK  166  A    between atoms: _404  and  _406
REMARK  167  A    between atoms: _406  and  _407
REMARK  168  A    between atoms: _409  and  _411
REMARK  169  A    between atoms: _411  and  _412
REMARK  170  A    between atoms: _411  and  _414
REMARK  171  A    between atoms: _414  and  _415
REMARK  172  A    between atoms: _421  and  _423
REMARK  173  A    between atoms: _423  and  _424
REMARK  174  A    between atoms: _423  and  _426
REMARK  175  A    between atoms: _426  and  _427
REMARK  176  A    between atoms: _431  and  _432
REMARK  177  A    between atoms: _437  and  _439
REMARK  178  A    between atoms: _439  and  _440
REMARK  179  A    between atoms: _439  and  _442
REMARK  180  A    between atoms: _445  and  _447
REMARK  181  A    between atoms: _447  and  _448
REMARK  182  A    between atoms: _447  and  _450
REMARK  183  A    between atoms: _450  and  _451
REMARK  184  A    between atoms: _456  and  _458
REMARK  185  A    between atoms: _458  and  _459
REMARK  186  A    between atoms: _458  and  _461
REMARK  187  A    between atoms: _461  and  _462
REMARK  188  A    between atoms: _465  and  _467
REMARK  189  A    between atoms: _467  and  _468
REMARK  190  A    between atoms: _467  and  _470
REMARK  191  A    between atoms: _470  and  _471
REMARK  192  A    between atoms: _474  and  _476
REMARK  193  A    between atoms: _476  and  _477
REMARK  194  A    between atoms: _479  and  _481
REMARK  195  A    between atoms: _481  and  _482
REMARK  196  A    between atoms: _481  and  _484
REMARK  197  A    between atoms: _484  and  _485
REMARK  198  A    between atoms: _485  and  _486
REMARK  199  A    between atoms: _486  and  _487
REMARK                            x       y       z     vdW  Elec       q    Type
REMARK                         _______ _______ _______ _____ _____    ______ ____
ROOT
ATOM      1  O   HOH     1      20.632  -4.941   9.377  0.00  0.00    +0.000 OA
ENDROOT
TORSDOF 0
REMARK  Name = ../refined-set-2016/2q54/2q54_pocket.pdb
REMARK  199 active torsions:
REMARK  status: ('A' for Active; 'I' for Inactive)
REMARK    1  A    between atoms: _1  and  _3
REMARK    2  A    between atoms: _3  and  _4
REMARK    3  A    between atoms: _3  and  _6
REMARK    4  A    between atoms: _6  and  _7
REMARK    5  A    between atoms: _7  and  _8
REMARK    6  A    between atoms: _8  and  _9
REMARK    7  A    between atoms: _18  and  _20
REMARK    8  A    between atoms: _20  and  _21
REMARK    9  A    between atoms: _20  and  _23
REMARK   10  A    between atoms: _23  and  _24
REMARK   11  A    between atoms: _27  and  _29
REMARK   12  A    between atoms: _29  and  _30
REMARK   13  A    between atoms: _29  and  _32
REMARK   14  A    between atoms: _32  and  _33
REMARK   15  A    between atoms: _36  and  _38
REMARK   16  A    between atoms: _38  and  _39
REMARK   17  A    between atoms: _38  and  _41
REMARK   18  A    between atoms: _41  and  _42
REMARK   19  A    between atoms: _45  and  _47
REMARK   20  A    between atoms: _47  and  _48
REMARK   21  A    between atoms: _47  and  _50
REMARK   22  A    between atoms: _50  and  _51
REMARK   23  A    between atoms: _54  and  _56
REMARK   24  A    between atoms: _56  and  _57
REMARK   25  A    between atoms: _59  and  _61
REMARK   26  A    between atoms: _61  and  _62
REMARK   27  A    between atoms: _65  and  _67
REMARK   28  A    between atoms: _67  and  _68
REMARK   29  A    between atoms: _67  and  _70
REMARK   30  A    between atoms: _70  and  _71
REMARK   31  A    between atoms: _74  and  _76
REMARK   32  A    between atoms: _76  and  _77
REMARK   33  A    between atoms: _76  and  _79
REMARK   34  A    between atoms: _79  and  _80
REMARK   35  A    between atoms: _83  and  _85
REMARK   36  A    between atoms: _85  and  _86
REMARK   37  A    between atoms: _85  and  _88
REMARK   38  A    between atoms: _88  and  _89
REMARK   39  A    between atoms: _92  and  _94
REMARK   40  A    between atoms: _94  and  _95
REMARK   41  A    between atoms: _94  and  _97
REMARK   42  A    between atoms: _100  and  _102
REMARK   43  A    between atoms: _102  and  _103
REMARK   44  A    between atoms: _102  and  _105
REMARK   45  A    between atoms: _105  and  _106
REMARK   46  A    between atoms: _109  and  _111
REMARK   47  A    between atoms: _111  and  _112
REMARK   48  A    between atoms: _114  and  _116
REMARK   49  A    between atoms: _116  and  _117
REMARK   50  A    between atoms: _119  and  _121
REMARK   51  A    between atoms: _121  and  _122
REMARK   52  A    between atoms: _121  and  _124
REMARK   53  A    between atoms: _124  and  _125
REMARK   54  A    between atoms: _128  and  _130
REMARK   55  A    between atoms: _130  and  _131
REMARK   56  A    between atoms: _133  and  _135
REMARK   57  A    between atoms: _135  and  _136
REMARK   58  A    between atoms: _138  and  _140
REMARK   59  A    between atoms: _140  and  _141
REMARK   60  A    between atoms: _140  and  _143
REMARK   61  A    between atoms: _143  and  _144
REMARK   62  A    between atoms: _150  and  _152
REMARK   63  A    between atoms: _152  and  _153
REMARK   64  A    between atoms: _152  and  _155
REMARK   65  A    between atoms: _155  and  _156
REMARK   66  A    between atoms: _159  and  _161
REMARK   67  A    between atoms: _161  and  _162
REMARK   68  A    between atoms: _161  and  _164
REMARK   69  A    between atoms: _164  and  _165
REMARK   70  A    between atoms: _169  and  _170
REMARK   71  A    between atoms: _175  and  _177
REMARK   72  A    between atoms: _177  and  _178
REMARK   73  A    between atoms: _177  and  _180
REMARK   74  A    between atoms: _180  and  _181
REMARK   75  A    between atoms: _185  and  _186
REMARK   76  A    between atoms: _191  and  _193
REMARK   77  A    between atoms: _193  and  _194
REMARK   78  A    between atoms: _193  and  _196
REMARK   79  A    between atoms: _199  and  _201
REMARK   80  A    between atoms: _201  and  _202
REMARK   81  A    between atoms: _201  and  _204
REMARK   82  A    between atoms: _204  and  _205
REMARK   83  A    between atoms: _210  and  _212
REMARK   84  A    between atoms: _212  and  _213
REMARK   85  A    between atoms: _212  and  _215
REMARK   86  A    between atoms: _215  and  _216
REMARK   87  A    between atoms: _219  and  _221
REMARK   88  A    between atoms: _221  and  _222
REMARK   89  A    between atoms: _221  and  _224
REMARK   90  A    between atoms: _224  and  _225
REMARK   91  A    between atoms: _228  and  _230
REMARK   92  A    between atoms: _230  and  _231
REMARK   93  A    between atoms: _233  and  _235
REMARK   94  A    between atoms: _235  and  _236
REMARK   95  A    between atoms: _235  and  _238
REMARK   96  A    between atoms: _238  and  _239
REMARK   97  A    between atoms: _239  and  _240
REMARK   98  A    between atoms: _240  and  _241
REMARK   99  A    between atoms: _250  and  _252
REMARK  100  A    between atoms: _252  and  _253
REMARK  101  A    between atoms: _252  and  _255
REMARK  102  A    between atoms: _255  and  _256
REMARK  103  A    between atoms: _256  and  _257
REMARK  104  A    between atoms: _257  and  _258
REMARK  105  A    between atoms: _267  and  _269
REMARK  106  A    between atoms: _269  and  _270
REMARK  107  A    between atoms: _269  and  _272
REMARK  108  A    between atoms: _272  and  _273
REMARK  109  A    between atoms: _276  and  _278
REMARK  110  A    between atoms: _278  and  _279
REMARK  111  A    between atoms: _278  and  _281
REMARK  112  A    between atoms: _281  and  _282
REMARK  113  A    between atoms: _285  and  _287
REMARK  114  A    between atoms: _287  and  _288
REMARK  115  A    between atoms: _287  and  _290
REMARK  116  A    between atoms: _290  and  _291
REMARK  117  A    between atoms: _294  and  _296
REMARK  118  A    between atoms: _296  and  _297
REMARK  119  A    between atoms: _296  and  _299
REMARK  120  A    between atoms: _299  and  _300
REMARK  121  A    between atoms: _303  and  _305
REMARK  122  A    between atoms: _305  and  _306
REMARK  123  A    between atoms: _308  and  _310
REMARK  124  A    between atoms: _310  and  _311
REMARK  125  A    between atoms: _314  and  _316
REMARK  126  A    between atoms: _316  and  _317
REMARK  127  A    between atoms: _316  and  _319
REMARK  128  A    between atoms: _319  and  _320
REMARK  129  A    between atoms: _323  and  _325
REMARK  130  A    between atoms: _325  and  _326
REMARK  131  A    between atoms: _325  and  _328
REMARK  132  A    between atoms: _328  and  _329
REMARK  133  A    between atoms: _332  and  _334
REMARK  134  A    between atoms: _334  and  _335
REMARK  135  A    between atoms: _334  and  _337
REMARK  136  A    between atoms: _337  and  _338
REMARK  137  A    between atoms: _341  and  _343
REMARK  138  A    between atoms: _343  and  _344
REMARK  139  A    between atoms: _343  and  _346
REMARK  140  A    between atoms: _349  and  _351
REMARK  141  A    between atoms: _351  and  _352
REMARK  142  A    between atoms: _351  and  _354
REMARK  143  A    between atoms: _354  and  _355
REMARK  144  A    between atoms: _355  and  _356
REMARK  145  A    between atoms: _356  and  _357
REMARK  146  A    between atoms: _357  and  _358
REMARK  147  A    between atoms: _362  and  _364
REMARK  148  A    between atoms: _364  and  _365
REMARK  149  A    between atoms: _364  and  _367
REMARK  150  A    between atoms: _367  and  _368
REMARK  151  A    between atoms: _368  and  _369
REMARK  152  A    between atoms: _371  and  _373
REMARK  153  A    between atoms: _373  and  _374
REMARK  154  A    between atoms: _373  and  _376
REMARK  155  A    between atoms: _376  and  _377
REMARK  156  A    between atoms: _380  and  _382
REMARK  157  A    between atoms: _382  and  _383
REMARK  158  A    between atoms: _385  and  _387
REMARK  159  A    between atoms: _387  and  _388
REMARK  160  A    between atoms: _390  and  _392
REMARK  161  A    between atoms: _392  and  _393
REMARK  162  A    between atoms: _392  and  _395
REMARK  163  A    between atoms: _395  and  _396
REMARK  164  A    between atoms: _399  and  _401
REMARK  165  A    between atoms: _401  and  _402
REMARK  166  A    between atoms: _404  and  _406
REMARK  167  A    between atoms: _406  and  _407
REMARK  168  A    between atoms: _409  and  _411
REMARK  169  A    between atoms: _411  and  _412
REMARK  170  A    between atoms: _411  and  _414
REMARK  171  A    between atoms: _414  and  _415
REMARK  172  A    between atoms: _421  and  _423
REMARK  173  A    between atoms: _423  and  _424
REMARK  174  A    between atoms: _423  and  _426
REMARK  175  A    between atoms: _426  and  _427
REMARK  176  A    between atoms: _431  and  _432
REMARK  177  A    between atoms: _437  and  _439
REMARK  178  A    between atoms: _439  and  _440
REMARK  179  A    between atoms: _439  and  _442
REMARK  180  A    between atoms: _445  and  _447
REMARK  181  A    between atoms: _447  and  _448
REMARK  182  A    between atoms: _447  and  _450
REMARK  183  A    between atoms: _450  and  _451
REMARK  184  A    between atoms: _456  and  _458
REMARK  185  A    between atoms: _458  and  _459
REMARK  186  A    between atoms: _458  and  _461
REMARK  187  A    between atoms: _461  and  _462
REMARK  188  A    between atoms: _465  and  _467
REMARK  189  A    between atoms: _467  and  _468
REMARK  190  A    between atoms: _467  and  _470
REMARK  191  A    between atoms: _470  and  _471
REMARK  192  A    between atoms: _474  and  _476
REMARK  193  A    between atoms: _476  and  _477
REMARK  194  A    between atoms: _479  and  _481
REMARK  195  A    between atoms: _481  and  _482
REMARK  196  A    between atoms: _481  and  _484
REMARK  197  A    between atoms: _484  and  _485
REMARK  198  A    between atoms: _485  and  _486
REMARK  199  A    between atoms: _486  and  _487
REMARK                            x       y       z     vdW  Elec       q    Type
REMARK                         _______ _______ _______ _____ _____    ______ ____
ROOT
ATOM      1  O   HOH     1      17.235 -11.177  14.676  0.00  0.00    +0.000 OA
ENDROOT
TORSDOF 0
REMARK  Name = ../refined-set-2016/2q54/2q54_pocket.pdb
REMARK  199 active torsions:
REMARK  status: ('A' for Active; 'I' for Inactive)
REMARK    1  A    between atoms: _1  and  _3
REMARK    2  A    between atoms: _3  and  _4
REMARK    3  A    between atoms: _3  and  _6
REMARK    4  A    between atoms: _6  and  _7
REMARK    5  A    between atoms: _7  and  _8
REMARK    6  A    between atoms: _8  and  _9
REMARK    7  A    between atoms: _18  and  _20
REMARK    8  A    between atoms: _20  and  _21
REMARK    9  A    between atoms: _20  and  _23
REMARK   10  A    between atoms: _23  and  _24
REMARK   11  A    between atoms: _27  and  _29
REMARK   12  A    between atoms: _29  and  _30
REMARK   13  A    between atoms: _29  and  _32
REMARK   14  A    between atoms: _32  and  _33
REMARK   15  A    between atoms: _36  and  _38
REMARK   16  A    between atoms: _38  and  _39
REMARK   17  A    between atoms: _38  and  _41
REMARK   18  A    between atoms: _41  and  _42
REMARK   19  A    between atoms: _45  and  _47
REMARK   20  A    between atoms: _47  and  _48
REMARK   21  A    between atoms: _47  and  _50
REMARK   22  A    between atoms: _50  and  _51
REMARK   23  A    between atoms: _54  and  _56
REMARK   24  A    between atoms: _56  and  _57
REMARK   25  A    between atoms: _59  and  _61
REMARK   26  A    between atoms: _61  and  _62
REMARK   27  A    between atoms: _65  and  _67
REMARK   28  A    between atoms: _67  and  _68
REMARK   29  A    between atoms: _67  and  _70
REMARK   30  A    between atoms: _70  and  _71
REMARK   31  A    between atoms: _74  and  _76
REMARK   32  A    between atoms: _76  and  _77
REMARK   33  A    between atoms: _76  and  _79
REMARK   34  A    between atoms: _79  and  _80
REMARK   35  A    between atoms: _83  and  _85
REMARK   36  A    between atoms: _85  and  _86
REMARK   37  A    between atoms: _85  and  _88
REMARK   38  A    between atoms: _88  and  _89
REMARK   39  A    between atoms: _92  and  _94
REMARK   40  A    between atoms: _94  and  _95
REMARK   41  A    between atoms: _94  and  _97
REMARK   42  A    between atoms: _100  and  _102
REMARK   43  A    between atoms: _102  and  _103
REMARK   44  A    between atoms: _102  and  _105
REMARK   45  A    between atoms: _105  and  _106
REMARK   46  A    between atoms: _109  and  _111
REMARK   47  A    between atoms: _111  and  _112
REMARK   48  A    between atoms: _114  and  _116
REMARK   49  A    between atoms: _116  and  _117
REMARK   50  A    between atoms: _119  and  _121
REMARK   51  A    between atoms: _121  and  _122
REMARK   52  A    between atoms: _121  and  _124
REMARK   53  A    between atoms: _124  and  _125
REMARK   54  A    between atoms: _128  and  _130
REMARK   55  A    between atoms: _130  and  _131
REMARK   56  A    between atoms: _133  and  _135
REMARK   57  A    between atoms: _135  and  _136
REMARK   58  A    between atoms: _138  and  _140
REMARK   59  A    between atoms: _140  and  _141
REMARK   60  A    between atoms: _140  and  _143
REMARK   61  A    between atoms: _143  and  _144
REMARK   62  A    between atoms: _150  and  _152
REMARK   63  A    between atoms: _152  and  _153
REMARK   64  A    between atoms: _152  and  _155
REMARK   65  A    between atoms: _155  and  _156
REMARK   66  A    between atoms: _159  and  _161
REMARK   67  A    between atoms: _161  and  _162
REMARK   68  A    between atoms: _161  and  _164
REMARK   69  A    between atoms: _164  and  _165
REMARK   70  A    between atoms: _169  and  _170
REMARK   71  A    between atoms: _175  and  _177
REMARK   72  A    between atoms: _177  and  _178
REMARK   73  A    between atoms: _177  and  _180
REMARK   74  A    between atoms: _180  and  _181
REMARK   75  A    between atoms: _185  and  _186
REMARK   76  A    between atoms: _191  and  _193
REMARK   77  A    between atoms: _193  and  _194
REMARK   78  A    between atoms: _193  and  _196
REMARK   79  A    between atoms: _199  and  _201
REMARK   80  A    between atoms: _201  and  _202
REMARK   81  A    between atoms: _201  and  _204
REMARK   82  A    between atoms: _204  and  _205
REMARK   83  A    between atoms: _210  and  _212
REMARK   84  A    between atoms: _212  and  _213
REMARK   85  A    between atoms: _212  and  _215
REMARK   86  A    between atoms: _215  and  _216
REMARK   87  A    between atoms: _219  and  _221
REMARK   88  A    between atoms: _221  and  _222
REMARK   89  A    between atoms: _221  and  _224
REMARK   90  A    between atoms: _224  and  _225
REMARK   91  A    between atoms: _228  and  _230
REMARK   92  A    between atoms: _230  and  _231
REMARK   93  A    between atoms: _233  and  _235
REMARK   94  A    between atoms: _235  and  _236
REMARK   95  A    between atoms: _235  and  _238
REMARK   96  A    between atoms: _238  and  _239
REMARK   97  A    between atoms: _239  and  _240
REMARK   98  A    between atoms: _240  and  _241
REMARK   99  A    between atoms: _250  and  _252
REMARK  100  A    between atoms: _252  and  _253
REMARK  101  A    between atoms: _252  and  _255
REMARK  102  A    between atoms: _255  and  _256
REMARK  103  A    between atoms: _256  and  _257
REMARK  104  A    between atoms: _257  and  _258
REMARK  105  A    between atoms: _267  and  _269
REMARK  106  A    between atoms: _269  and  _270
REMARK  107  A    between atoms: _269  and  _272
REMARK  108  A    between atoms: _272  and  _273
REMARK  109  A    between atoms: _276  and  _278
REMARK  110  A    between atoms: _278  and  _279
REMARK  111  A    between atoms: _278  and  _281
REMARK  112  A    between atoms: _281  and  _282
REMARK  113  A    between atoms: _285  and  _287
REMARK  114  A    between atoms: _287  and  _288
REMARK  115  A    between atoms: _287  and  _290
REMARK  116  A    between atoms: _290  and  _291
REMARK  117  A    between atoms: _294  and  _296
REMARK  118  A    between atoms: _296  and  _297
REMARK  119  A    between atoms: _296  and  _299
REMARK  120  A    between atoms: _299  and  _300
REMARK  121  A    between atoms: _303  and  _305
REMARK  122  A    between atoms: _305  and  _306
REMARK  123  A    between atoms: _308  and  _310
REMARK  124  A    between atoms: _310  and  _311
REMARK  125  A    between atoms: _314  and  _316
REMARK  126  A    between atoms: _316  and  _317
REMARK  127  A    between atoms: _316  and  _319
REMARK  128  A    between atoms: _319  and  _320
REMARK  129  A    between atoms: _323  and  _325
REMARK  130  A    between atoms: _325  and  _326
REMARK  131  A    between atoms: _325  and  _328
REMARK  132  A    between atoms: _328  and  _329
REMARK  133  A    between atoms: _332  and  _334
REMARK  134  A    between atoms: _334  and  _335
REMARK  135  A    between atoms: _334  and  _337
REMARK  136  A    between atoms: _337  and  _338
REMARK  137  A    between atoms: _341  and  _343
REMARK  138  A    between atoms: _343  and  _344
REMARK  139  A    between atoms: _343  and  _346
REMARK  140  A    between atoms: _349  and  _351
REMARK  141  A    between atoms: _351  and  _352
REMARK  142  A    between atoms: _351  and  _354
REMARK  143  A    between atoms: _354  and  _355
REMARK  144  A    between atoms: _355  and  _356
REMARK  145  A    between atoms: _356  and  _357
REMARK  146  A    between atoms: _357  and  _358
REMARK  147  A    between atoms: _362  and  _364
REMARK  148  A    between atoms: _364  and  _365
REMARK  149  A    between atoms: _364  and  _367
REMARK  150  A    between atoms: _367  and  _368
REMARK  151  A    between atoms: _368  and  _369
REMARK  152  A    between atoms: _371  and  _373
REMARK  153  A    between atoms: _373  and  _374
REMARK  154  A    between atoms: _373  and  _376
REMARK  155  A    between atoms: _376  and  _377
REMARK  156  A    between atoms: _380  and  _382
REMARK  157  A    between atoms: _382  and  _383
REMARK  158  A    between atoms: _385  and  _387
REMARK  159  A    between atoms: _387  and  _388
REMARK  160  A    between atoms: _390  and  _392
REMARK  161  A    between atoms: _392  and  _393
REMARK  162  A    between atoms: _392  and  _395
REMARK  163  A    between atoms: _395  and  _396
REMARK  164  A    between atoms: _399  and  _401
REMARK  165  A    between atoms: _401  and  _402
REMARK  166  A    between atoms: _404  and  _406
REMARK  167  A    between atoms: _406  and  _407
REMARK  168  A    between atoms: _409  and  _411
REMARK  169  A    between atoms: _411  and  _412
REMARK  170  A    between atoms: _411  and  _414
REMARK  171  A    between atoms: _414  and  _415
REMARK  172  A    between atoms: _421  and  _423
REMARK  173  A    between atoms: _423  and  _424
REMARK  174  A    between atoms: _423  and  _426
REMARK  175  A    between atoms: _426  and  _427
REMARK  176  A    between atoms: _431  and  _432
REMARK  177  A    between atoms: _437  and  _439
REMARK  178  A    between atoms: _439  and  _440
REMARK  179  A    between atoms: _439  and  _442
REMARK  180  A    between atoms: _445  and  _447
REMARK  181  A    between atoms: _447  and  _448
REMARK  182  A    between atoms: _447  and  _450
REMARK  183  A    between atoms: _450  and  _451
REMARK  184  A    between atoms: _456  and  _458
REMARK  185  A    between atoms: _458  and  _459
REMARK  186  A    between atoms: _458  and  _461
REMARK  187  A    between atoms: _461  and  _462
REMARK  188  A    between atoms: _465  and  _467
REMARK  189  A    between atoms: _467  and  _468
REMARK  190  A    between atoms: _467  and  _470
REMARK  191  A    between atoms: _470  and  _471
REMARK  192  A    between atoms: _474  and  _476
REMARK  193  A    between atoms: _476  and  _477
REMARK  194  A    between atoms: _479  and  _481
REMARK  195  A    between atoms: _481  and  _482
REMARK  196  A    between atoms: _481  and  _484
REMARK  197  A    between atoms: _484  and  _485
REMARK  198  A    between atoms: _485  and  _486
REMARK  199  A    between atoms: _486  and  _487
REMARK                            x       y       z     vdW  Elec       q    Type
REMARK                         _______ _______ _______ _____ _____    ______ ____
ROOT
ATOM      1  O   HOH     1      19.340   5.629  23.774  0.00  0.00    +0.000 OA
ENDROOT
TORSDOF 0
REMARK  Name = ../refined-set-2016/2q54/2q54_pocket.pdb
REMARK  199 active torsions:
REMARK  status: ('A' for Active; 'I' for Inactive)
REMARK    1  A    between atoms: _1  and  _3
REMARK    2  A    between atoms: _3  and  _4
REMARK    3  A    between atoms: _3  and  _6
REMARK    4  A    between atoms: _6  and  _7
REMARK    5  A    between atoms: _7  and  _8
REMARK    6  A    between atoms: _8  and  _9
REMARK    7  A    between atoms: _18  and  _20
REMARK    8  A    between atoms: _20  and  _21
REMARK    9  A    between atoms: _20  and  _23
REMARK   10  A    between atoms: _23  and  _24
REMARK   11  A    between atoms: _27  and  _29
REMARK   12  A    between atoms: _29  and  _30
REMARK   13  A    between atoms: _29  and  _32
REMARK   14  A    between atoms: _32  and  _33
REMARK   15  A    between atoms: _36  and  _38
REMARK   16  A    between atoms: _38  and  _39
REMARK   17  A    between atoms: _38  and  _41
REMARK   18  A    between atoms: _41  and  _42
REMARK   19  A    between atoms: _45  and  _47
REMARK   20  A    between atoms: _47  and  _48
REMARK   21  A    between atoms: _47  and  _50
REMARK   22  A    between atoms: _50  and  _51
REMARK   23  A    between atoms: _54  and  _56
REMARK   24  A    between atoms: _56  and  _57
REMARK   25  A    between atoms: _59  and  _61
REMARK   26  A    between atoms: _61  and  _62
REMARK   27  A    between atoms: _65  and  _67
REMARK   28  A    between atoms: _67  and  _68
REMARK   29  A    between atoms: _67  and  _70
REMARK   30  A    between atoms: _70  and  _71
REMARK   31  A    between atoms: _74  and  _76
REMARK   32  A    between atoms: _76  and  _77
REMARK   33  A    between atoms: _76  and  _79
REMARK   34  A    between atoms: _79  and  _80
REMARK   35  A    between atoms: _83  and  _85
REMARK   36  A    between atoms: _85  and  _86
REMARK   37  A    between atoms: _85  and  _88
REMARK   38  A    between atoms: _88  and  _89
REMARK   39  A    between atoms: _92  and  _94
REMARK   40  A    between atoms: _94  and  _95
REMARK   41  A    between atoms: _94  and  _97
REMARK   42  A    between atoms: _100  and  _102
REMARK   43  A    between atoms: _102  and  _103
REMARK   44  A    between atoms: _102  and  _105
REMARK   45  A    between atoms: _105  and  _106
REMARK   46  A    between atoms: _109  and  _111
REMARK   47  A    between atoms: _111  and  _112
REMARK   48  A    between atoms: _114  and  _116
REMARK   49  A    between atoms: _116  and  _117
REMARK   50  A    between atoms: _119  and  _121
REMARK   51  A    between atoms: _121  and  _122
REMARK   52  A    between atoms: _121  and  _124
REMARK   53  A    between atoms: _124  and  _125
REMARK   54  A    between atoms: _128  and  _130
REMARK   55  A    between atoms: _130  and  _131
REMARK   56  A    between atoms: _133  and  _135
REMARK   57  A    between atoms: _135  and  _136
REMARK   58  A    between atoms: _138  and  _140
REMARK   59  A    between atoms: _140  and  _141
REMARK   60  A    between atoms: _140  and  _143
REMARK   61  A    between atoms: _143  and  _144
REMARK   62  A    between atoms: _150  and  _152
REMARK   63  A    between atoms: _152  and  _153
REMARK   64  A    between atoms: _152  and  _155
REMARK   65  A    between atoms: _155  and  _156
REMARK   66  A    between atoms: _159  and  _161
REMARK   67  A    between atoms: _161  and  _162
REMARK   68  A    between atoms: _161  and  _164
REMARK   69  A    between atoms: _164  and  _165
REMARK   70  A    between atoms: _169  and  _170
REMARK   71  A    between atoms: _175  and  _177
REMARK   72  A    between atoms: _177  and  _178
REMARK   73  A    between atoms: _177  and  _180
REMARK   74  A    between atoms: _180  and  _181
REMARK   75  A    between atoms: _185  and  _186
REMARK   76  A    between atoms: _191  and  _193
REMARK   77  A    between atoms: _193  and  _194
REMARK   78  A    between atoms: _193  and  _196
REMARK   79  A    between atoms: _199  and  _201
REMARK   80  A    between atoms: _201  and  _202
REMARK   81  A    between atoms: _201  and  _204
REMARK   82  A    between atoms: _204  and  _205
REMARK   83  A    between atoms: _210  and  _212
REMARK   84  A    between atoms: _212  and  _213
REMARK   85  A    between atoms: _212  and  _215
REMARK   86  A    between atoms: _215  and  _216
REMARK   87  A    between atoms: _219  and  _221
REMARK   88  A    between atoms: _221  and  _222
REMARK   89  A    between atoms: _221  and  _224
REMARK   90  A    between atoms: _224  and  _225
REMARK   91  A    between atoms: _228  and  _230
REMARK   92  A    between atoms: _230  and  _231
REMARK   93  A    between atoms: _233  and  _235
REMARK   94  A    between atoms: _235  and  _236
REMARK   95  A    between atoms: _235  and  _238
REMARK   96  A    between atoms: _238  and  _239
REMARK   97  A    between atoms: _239  and  _240
REMARK   98  A    between atoms: _240  and  _241
REMARK   99  A    between atoms: _250  and  _252
REMARK  100  A    between atoms: _252  and  _253
REMARK  101  A    between atoms: _252  and  _255
REMARK  102  A    between atoms: _255  and  _256
REMARK  103  A    between atoms: _256  and  _257
REMARK  104  A    between atoms: _257  and  _258
REMARK  105  A    between atoms: _267  and  _269
REMARK  106  A    between atoms: _269  and  _270
REMARK  107  A    between atoms: _269  and  _272
REMARK  108  A    between atoms: _272  and  _273
REMARK  109  A    between atoms: _276  and  _278
REMARK  110  A    between atoms: _278  and  _279
REMARK  111  A    between atoms: _278  and  _281
REMARK  112  A    between atoms: _281  and  _282
REMARK  113  A    between atoms: _285  and  _287
REMARK  114  A    between atoms: _287  and  _288
REMARK  115  A    between atoms: _287  and  _290
REMARK  116  A    between atoms: _290  and  _291
REMARK  117  A    between atoms: _294  and  _296
REMARK  118  A    between atoms: _296  and  _297
REMARK  119  A    between atoms: _296  and  _299
REMARK  120  A    between atoms: _299  and  _300
REMARK  121  A    between atoms: _303  and  _305
REMARK  122  A    between atoms: _305  and  _306
REMARK  123  A    between atoms: _308  and  _310
REMARK  124  A    between atoms: _310  and  _311
REMARK  125  A    between atoms: _314  and  _316
REMARK  126  A    between atoms: _316  and  _317
REMARK  127  A    between atoms: _316  and  _319
REMARK  128  A    between atoms: _319  and  _320
REMARK  129  A    between atoms: _323  and  _325
REMARK  130  A    between atoms: _325  and  _326
REMARK  131  A    between atoms: _325  and  _328
REMARK  132  A    between atoms: _328  and  _329
REMARK  133  A    between atoms: _332  and  _334
REMARK  134  A    between atoms: _334  and  _335
REMARK  135  A    between atoms: _334  and  _337
REMARK  136  A    between atoms: _337  and  _338
REMARK  137  A    between atoms: _341  and  _343
REMARK  138  A    between atoms: _343  and  _344
REMARK  139  A    between atoms: _343  and  _346
REMARK  140  A    between atoms: _349  and  _351
REMARK  141  A    between atoms: _351  and  _352
REMARK  142  A    between atoms: _351  and  _354
REMARK  143  A    between atoms: _354  and  _355
REMARK  144  A    between atoms: _355  and  _356
REMARK  145  A    between atoms: _356  and  _357
REMARK  146  A    between atoms: _357  and  _358
REMARK  147  A    between atoms: _362  and  _364
REMARK  148  A    between atoms: _364  and  _365
REMARK  149  A    between atoms: _364  and  _367
REMARK  150  A    between atoms: _367  and  _368
REMARK  151  A    between atoms: _368  and  _369
REMARK  152  A    between atoms: _371  and  _373
REMARK  153  A    between atoms: _373  and  _374
REMARK  154  A    between atoms: _373  and  _376
REMARK  155  A    between atoms: _376  and  _377
REMARK  156  A    between atoms: _380  and  _382
REMARK  157  A    between atoms: _382  and  _383
REMARK  158  A    between atoms: _385  and  _387
REMARK  159  A    between atoms: _387  and  _388
REMARK  160  A    between atoms: _390  and  _392
REMARK  161  A    between atoms: _392  and  _393
REMARK  162  A    between atoms: _392  and  _395
REMARK  163  A    between atoms: _395  and  _396
REMARK  164  A    between atoms: _399  and  _401
REMARK  165  A    between atoms: _401  and  _402
REMARK  166  A    between atoms: _404  and  _406
REMARK  167  A    between atoms: _406  and  _407
REMARK  168  A    between atoms: _409  and  _411
REMARK  169  A    between atoms: _411  and  _412
REMARK  170  A    between atoms: _411  and  _414
REMARK  171  A    between atoms: _414  and  _415
REMARK  172  A    between atoms: _421  and  _423
REMARK  173  A    between atoms: _423  and  _424
REMARK  174  A    between atoms: _423  and  _426
REMARK  175  A    between atoms: _426  and  _427
REMARK  176  A    between atoms: _431  and  _432
REMARK  177  A    between atoms: _437  and  _439
REMARK  178  A    between atoms: _439  and  _440
REMARK  179  A    between atoms: _439  and  _442
REMARK  180  A    between atoms: _445  and  _447
REMARK  181  A    between atoms: _447  and  _448
REMARK  182  A    between atoms: _447  and  _450
REMARK  183  A    between atoms: _450  and  _451
REMARK  184  A    between atoms: _456  and  _458
REMARK  185  A    between atoms: _458  and  _459
REMARK  186  A    between atoms: _458  and  _461
REMARK  187  A    between atoms: _461  and  _462
REMARK  188  A    between atoms: _465  and  _467
REMARK  189  A    between atoms: _467  and  _468
REMARK  190  A    between atoms: _467  and  _470
REMARK  191  A    between atoms: _470  and  _471
REMARK  192  A    between atoms: _474  and  _476
REMARK  193  A    between atoms: _476  and  _477
REMARK  194  A    between atoms: _479  and  _481
REMARK  195  A    between atoms: _481  and  _482
REMARK  196  A    between atoms: _481  and  _484
REMARK  197  A    between atoms: _484  and  _485
REMARK  198  A    between atoms: _485  and  _486
REMARK  199  A    between atoms: _486  and  _487
REMARK                            x       y       z     vdW  Elec       q    Type
REMARK                         _______ _______ _______ _____ _____    ______ ____
ROOT
ATOM      1  O   HOH     1      14.483  -6.029   4.737  0.00  0.00    +0.000 OA
ENDROOT
TORSDOF 0
REMARK  Name = ../refined-set-2016/2q54/2q54_pocket.pdb
REMARK  199 active torsions:
REMARK  status: ('A' for Active; 'I' for Inactive)
REMARK    1  A    between atoms: _1  and  _3
REMARK    2  A    between atoms: _3  and  _4
REMARK    3  A    between atoms: _3  and  _6
REMARK    4  A    between atoms: _6  and  _7
REMARK    5  A    between atoms: _7  and  _8
REMARK    6  A    between atoms: _8  and  _9
REMARK    7  A    between atoms: _18  and  _20
REMARK    8  A    between atoms: _20  and  _21
REMARK    9  A    between atoms: _20  and  _23
REMARK   10  A    between atoms: _23  and  _24
REMARK   11  A    between atoms: _27  and  _29
REMARK   12  A    between atoms: _29  and  _30
REMARK   13  A    between atoms: _29  and  _32
REMARK   14  A    between atoms: _32  and  _33
REMARK   15  A    between atoms: _36  and  _38
REMARK   16  A    between atoms: _38  and  _39
REMARK   17  A    between atoms: _38  and  _41
REMARK   18  A    between atoms: _41  and  _42
REMARK   19  A    between atoms: _45  and  _47
REMARK   20  A    between atoms: _47  and  _48
REMARK   21  A    between atoms: _47  and  _50
REMARK   22  A    between atoms: _50  and  _51
REMARK   23  A    between atoms: _54  and  _56
REMARK   24  A    between atoms: _56  and  _57
REMARK   25  A    between atoms: _59  and  _61
REMARK   26  A    between atoms: _61  and  _62
REMARK   27  A    between atoms: _65  and  _67
REMARK   28  A    between atoms: _67  and  _68
REMARK   29  A    between atoms: _67  and  _70
REMARK   30  A    between atoms: _70  and  _71
REMARK   31  A    between atoms: _74  and  _76
REMARK   32  A    between atoms: _76  and  _77
REMARK   33  A    between atoms: _76  and  _79
REMARK   34  A    between atoms: _79  and  _80
REMARK   35  A    between atoms: _83  and  _85
REMARK   36  A    between atoms: _85  and  _86
REMARK   37  A    between atoms: _85  and  _88
REMARK   38  A    between atoms: _88  and  _89
REMARK   39  A    between atoms: _92  and  _94
REMARK   40  A    between atoms: _94  and  _95
REMARK   41  A    between atoms: _94  and  _97
REMARK   42  A    between atoms: _100  and  _102
REMARK   43  A    between atoms: _102  and  _103
REMARK   44  A    between atoms: _102  and  _105
REMARK   45  A    between atoms: _105  and  _106
REMARK   46  A    between atoms: _109  and  _111
REMARK   47  A    between atoms: _111  and  _112
REMARK   48  A    between atoms: _114  and  _116
REMARK   49  A    between atoms: _116  and  _117
REMARK   50  A    between atoms: _119  and  _121
REMARK   51  A    between atoms: _121  and  _122
REMARK   52  A    between atoms: _121  and  _124
REMARK   53  A    between atoms: _124  and  _125
REMARK   54  A    between atoms: _128  and  _130
REMARK   55  A    between atoms: _130  and  _131
REMARK   56  A    between atoms: _133  and  _135
REMARK   57  A    between atoms: _135  and  _136
REMARK   58  A    between atoms: _138  and  _140
REMARK   59  A    between atoms: _140  and  _141
REMARK   60  A    between atoms: _140  and  _143
REMARK   61  A    between atoms: _143  and  _144
REMARK   62  A    between atoms: _150  and  _152
REMARK   63  A    between atoms: _152  and  _153
REMARK   64  A    between atoms: _152  and  _155
REMARK   65  A    between atoms: _155  and  _156
REMARK   66  A    between atoms: _159  and  _161
REMARK   67  A    between atoms: _161  and  _162
REMARK   68  A    between atoms: _161  and  _164
REMARK   69  A    between atoms: _164  and  _165
REMARK   70  A    between atoms: _169  and  _170
REMARK   71  A    between atoms: _175  and  _177
REMARK   72  A    between atoms: _177  and  _178
REMARK   73  A    between atoms: _177  and  _180
REMARK   74  A    between atoms: _180  and  _181
REMARK   75  A    between atoms: _185  and  _186
REMARK   76  A    between atoms: _191  and  _193
REMARK   77  A    between atoms: _193  and  _194
REMARK   78  A    between atoms: _193  and  _196
REMARK   79  A    between atoms: _199  and  _201
REMARK   80  A    between atoms: _201  and  _202
REMARK   81  A    between atoms: _201  and  _204
REMARK   82  A    between atoms: _204  and  _205
REMARK   83  A    between atoms: _210  and  _212
REMARK   84  A    between atoms: _212  and  _213
REMARK   85  A    between atoms: _212  and  _215
REMARK   86  A    between atoms: _215  and  _216
REMARK   87  A    between atoms: _219  and  _221
REMARK   88  A    between atoms: _221  and  _222
REMARK   89  A    between atoms: _221  and  _224
REMARK   90  A    between atoms: _224  and  _225
REMARK   91  A    between atoms: _228  and  _230
REMARK   92  A    between atoms: _230  and  _231
REMARK   93  A    between atoms: _233  and  _235
REMARK   94  A    between atoms: _235  and  _236
REMARK   95  A    between atoms: _235  and  _238
REMARK   96  A    between atoms: _238  and  _239
REMARK   97  A    between atoms: _239  and  _240
REMARK   98  A    between atoms: _240  and  _241
REMARK   99  A    between atoms: _250  and  _252
REMARK  100  A    between atoms: _252  and  _253
REMARK  101  A    between atoms: _252  and  _255
REMARK  102  A    between atoms: _255  and  _256
REMARK  103  A    between atoms: _256  and  _257
REMARK  104  A    between atoms: _257  and  _258
REMARK  105  A    between atoms: _267  and  _269
REMARK  106  A    between atoms: _269  and  _270
REMARK  107  A    between atoms: _269  and  _272
REMARK  108  A    between atoms: _272  and  _273
REMARK  109  A    between atoms: _276  and  _278
REMARK  110  A    between atoms: _278  and  _279
REMARK  111  A    between atoms: _278  and  _281
REMARK  112  A    between atoms: _281  and  _282
REMARK  113  A    between atoms: _285  and  _287
REMARK  114  A    between atoms: _287  and  _288
REMARK  115  A    between atoms: _287  and  _290
REMARK  116  A    between atoms: _290  and  _291
REMARK  117  A    between atoms: _294  and  _296
REMARK  118  A    between atoms: _296  and  _297
REMARK  119  A    between atoms: _296  and  _299
REMARK  120  A    between atoms: _299  and  _300
REMARK  121  A    between atoms: _303  and  _305
REMARK  122  A    between atoms: _305  and  _306
REMARK  123  A    between atoms: _308  and  _310
REMARK  124  A    between atoms: _310  and  _311
REMARK  125  A    between atoms: _314  and  _316
REMARK  126  A    between atoms: _316  and  _317
REMARK  127  A    between atoms: _316  and  _319
REMARK  128  A    between atoms: _319  and  _320
REMARK  129  A    between atoms: _323  and  _325
REMARK  130  A    between atoms: _325  and  _326
REMARK  131  A    between atoms: _325  and  _328
REMARK  132  A    between atoms: _328  and  _329
REMARK  133  A    between atoms: _332  and  _334
REMARK  134  A    between atoms: _334  and  _335
REMARK  135  A    between atoms: _334  and  _337
REMARK  136  A    between atoms: _337  and  _338
REMARK  137  A    between atoms: _341  and  _343
REMARK  138  A    between atoms: _343  and  _344
REMARK  139  A    between atoms: _343  and  _346
REMARK  140  A    between atoms: _349  and  _351
REMARK  141  A    between atoms: _351  and  _352
REMARK  142  A    between atoms: _351  and  _354
REMARK  143  A    between atoms: _354  and  _355
REMARK  144  A    between atoms: _355  and  _356
REMARK  145  A    between atoms: _356  and  _357
REMARK  146  A    between atoms: _357  and  _358
REMARK  147  A    between atoms: _362  and  _364
REMARK  148  A    between atoms: _364  and  _365
REMARK  149  A    between atoms: _364  and  _367
REMARK  150  A    between atoms: _367  and  _368
REMARK  151  A    between atoms: _368  and  _369
REMARK  152  A    between atoms: _371  and  _373
REMARK  153  A    between atoms: _373  and  _374
REMARK  154  A    between atoms: _373  and  _376
REMARK  155  A    between atoms: _376  and  _377
REMARK  156  A    between atoms: _380  and  _382
REMARK  157  A    between atoms: _382  and  _383
REMARK  158  A    between atoms: _385  and  _387
REMARK  159  A    between atoms: _387  and  _388
REMARK  160  A    between atoms: _390  and  _392
REMARK  161  A    between atoms: _392  and  _393
REMARK  162  A    between atoms: _392  and  _395
REMARK  163  A    between atoms: _395  and  _396
REMARK  164  A    between atoms: _399  and  _401
REMARK  165  A    between atoms: _401  and  _402
REMARK  166  A    between atoms: _404  and  _406
REMARK  167  A    between atoms: _406  and  _407
REMARK  168  A    between atoms: _409  and  _411
REMARK  169  A    between atoms: _411  and  _412
REMARK  170  A    between atoms: _411  and  _414
REMARK  171  A    between atoms: _414  and  _415
REMARK  172  A    between atoms: _421  and  _423
REMARK  173  A    between atoms: _423  and  _424
REMARK  174  A    between atoms: _423  and  _426
REMARK  175  A    between atoms: _426  and  _427
REMARK  176  A    between atoms: _431  and  _432
REMARK  177  A    between atoms: _437  and  _439
REMARK  178  A    between atoms: _439  and  _440
REMARK  179  A    between atoms: _439  and  _442
REMARK  180  A    between atoms: _445  and  _447
REMARK  181  A    between atoms: _447  and  _448
REMARK  182  A    between atoms: _447  and  _450
REMARK  183  A    between atoms: _450  and  _451
REMARK  184  A    between atoms: _456  and  _458
REMARK  185  A    between atoms: _458  and  _459
REMARK  186  A    between atoms: _458  and  _461
REMARK  187  A    between atoms: _461  and  _462
REMARK  188  A    between atoms: _465  and  _467
REMARK  189  A    between atoms: _467  and  _468
REMARK  190  A    between atoms: _467  and  _470
REMARK  191  A    between atoms: _470  and  _471
REMARK  192  A    between atoms: _474  and  _476
REMARK  193  A    between atoms: _476  and  _477
REMARK  194  A    between atoms: _479  and  _481
REMARK  195  A    between atoms: _481  and  _482
REMARK  196  A    between atoms: _481  and  _484
REMARK  197  A    between atoms: _484  and  _485
REMARK  198  A    between atoms: _485  and  _486
REMARK  199  A    between atoms: _486  and  _487
REMARK                            x       y       z     vdW  Elec       q    Type
REMARK                         _______ _______ _______ _____ _____    ______ ____
ROOT
ATOM      1  O   HOH     1      20.480   3.726  24.970  0.00  0.00    +0.000 OA
ENDROOT
TORSDOF 0
REMARK  Name = ../refined-set-2016/2q54/2q54_pocket.pdb
REMARK  199 active torsions:
REMARK  status: ('A' for Active; 'I' for Inactive)
REMARK    1  A    between atoms: _1  and  _3
REMARK    2  A    between atoms: _3  and  _4
REMARK    3  A    between atoms: _3  and  _6
REMARK    4  A    between atoms: _6  and  _7
REMARK    5  A    between atoms: _7  and  _8
REMARK    6  A    between atoms: _8  and  _9
REMARK    7  A    between atoms: _18  and  _20
REMARK    8  A    between atoms: _20  and  _21
REMARK    9  A    between atoms: _20  and  _23
REMARK   10  A    between atoms: _23  and  _24
REMARK   11  A    between atoms: _27  and  _29
REMARK   12  A    between atoms: _29  and  _30
REMARK   13  A    between atoms: _29  and  _32
REMARK   14  A    between atoms: _32  and  _33
REMARK   15  A    between atoms: _36  and  _38
REMARK   16  A    between atoms: _38  and  _39
REMARK   17  A    between atoms: _38  and  _41
REMARK   18  A    between atoms: _41  and  _42
REMARK   19  A    between atoms: _45  and  _47
REMARK   20  A    between atoms: _47  and  _48
REMARK   21  A    between atoms: _47  and  _50
REMARK   22  A    between atoms: _50  and  _51
REMARK   23  A    between atoms: _54  and  _56
REMARK   24  A    between atoms: _56  and  _57
REMARK   25  A    between atoms: _59  and  _61
REMARK   26  A    between atoms: _61  and  _62
REMARK   27  A    between atoms: _65  and  _67
REMARK   28  A    between atoms: _67  and  _68
REMARK   29  A    between atoms: _67  and  _70
REMARK   30  A    between atoms: _70  and  _71
REMARK   31  A    between atoms: _74  and  _76
REMARK   32  A    between atoms: _76  and  _77
REMARK   33  A    between atoms: _76  and  _79
REMARK   34  A    between atoms: _79  and  _80
REMARK   35  A    between atoms: _83  and  _85
REMARK   36  A    between atoms: _85  and  _86
REMARK   37  A    between atoms: _85  and  _88
REMARK   38  A    between atoms: _88  and  _89
REMARK   39  A    between atoms: _92  and  _94
REMARK   40  A    between atoms: _94  and  _95
REMARK   41  A    between atoms: _94  and  _97
REMARK   42  A    between atoms: _100  and  _102
REMARK   43  A    between atoms: _102  and  _103
REMARK   44  A    between atoms: _102  and  _105
REMARK   45  A    between atoms: _105  and  _106
REMARK   46  A    between atoms: _109  and  _111
REMARK   47  A    between atoms: _111  and  _112
REMARK   48  A    between atoms: _114  and  _116
REMARK   49  A    between atoms: _116  and  _117
REMARK   50  A    between atoms: _119  and  _121
REMARK   51  A    between atoms: _121  and  _122
REMARK   52  A    between atoms: _121  and  _124
REMARK   53  A    between atoms: _124  and  _125
REMARK   54  A    between atoms: _128  and  _130
REMARK   55  A    between atoms: _130  and  _131
REMARK   56  A    between atoms: _133  and  _135
REMARK   57  A    between atoms: _135  and  _136
REMARK   58  A    between atoms: _138  and  _140
REMARK   59  A    between atoms: _140  and  _141
REMARK   60  A    between atoms: _140  and  _143
REMARK   61  A    between atoms: _143  and  _144
REMARK   62  A    between atoms: _150  and  _152
REMARK   63  A    between atoms: _152  and  _153
REMARK   64  A    between atoms: _152  and  _155
REMARK   65  A    between atoms: _155  and  _156
REMARK   66  A    between atoms: _159  and  _161
REMARK   67  A    between atoms: _161  and  _162
REMARK   68  A    between atoms: _161  and  _164
REMARK   69  A    between atoms: _164  and  _165
REMARK   70  A    between atoms: _169  and  _170
REMARK   71  A    between atoms: _175  and  _177
REMARK   72  A    between atoms: _177  and  _178
REMARK   73  A    between atoms: _177  and  _180
REMARK   74  A    between atoms: _180  and  _181
REMARK   75  A    between atoms: _185  and  _186
REMARK   76  A    between atoms: _191  and  _193
REMARK   77  A    between atoms: _193  and  _194
REMARK   78  A    between atoms: _193  and  _196
REMARK   79  A    between atoms: _199  and  _201
REMARK   80  A    between atoms: _201  and  _202
REMARK   81  A    between atoms: _201  and  _204
REMARK   82  A    between atoms: _204  and  _205
REMARK   83  A    between atoms: _210  and  _212
REMARK   84  A    between atoms: _212  and  _213
REMARK   85  A    between atoms: _212  and  _215
REMARK   86  A    between atoms: _215  and  _216
REMARK   87  A    between atoms: _219  and  _221
REMARK   88  A    between atoms: _221  and  _222
REMARK   89  A    between atoms: _221  and  _224
REMARK   90  A    between atoms: _224  and  _225
REMARK   91  A    between atoms: _228  and  _230
REMARK   92  A    between atoms: _230  and  _231
REMARK   93  A    between atoms: _233  and  _235
REMARK   94  A    between atoms: _235  and  _236
REMARK   95  A    between atoms: _235  and  _238
REMARK   96  A    between atoms: _238  and  _239
REMARK   97  A    between atoms: _239  and  _240
REMARK   98  A    between atoms: _240  and  _241
REMARK   99  A    between atoms: _250  and  _252
REMARK  100  A    between atoms: _252  and  _253
REMARK  101  A    between atoms: _252  and  _255
REMARK  102  A    between atoms: _255  and  _256
REMARK  103  A    between atoms: _256  and  _257
REMARK  104  A    between atoms: _257  and  _258
REMARK  105  A    between atoms: _267  and  _269
REMARK  106  A    between atoms: _269  and  _270
REMARK  107  A    between atoms: _269  and  _272
REMARK  108  A    between atoms: _272  and  _273
REMARK  109  A    between atoms: _276  and  _278
REMARK  110  A    between atoms: _278  and  _279
REMARK  111  A    between atoms: _278  and  _281
REMARK  112  A    between atoms: _281  and  _282
REMARK  113  A    between atoms: _285  and  _287
REMARK  114  A    between atoms: _287  and  _288
REMARK  115  A    between atoms: _287  and  _290
REMARK  116  A    between atoms: _290  and  _291
REMARK  117  A    between atoms: _294  and  _296
REMARK  118  A    between atoms: _296  and  _297
REMARK  119  A    between atoms: _296  and  _299
REMARK  120  A    between atoms: _299  and  _300
REMARK  121  A    between atoms: _303  and  _305
REMARK  122  A    between atoms: _305  and  _306
REMARK  123  A    between atoms: _308  and  _310
REMARK  124  A    between atoms: _310  and  _311
REMARK  125  A    between atoms: _314  and  _316
REMARK  126  A    between atoms: _316  and  _317
REMARK  127  A    between atoms: _316  and  _319
REMARK  128  A    between atoms: _319  and  _320
REMARK  129  A    between atoms: _323  and  _325
REMARK  130  A    between atoms: _325  and  _326
REMARK  131  A    between atoms: _325  and  _328
REMARK  132  A    between atoms: _328  and  _329
REMARK  133  A    between atoms: _332  and  _334
REMARK  134  A    between atoms: _334  and  _335
REMARK  135  A    between atoms: _334  and  _337
REMARK  136  A    between atoms: _337  and  _338
REMARK  137  A    between atoms: _341  and  _343
REMARK  138  A    between atoms: _343  and  _344
REMARK  139  A    between atoms: _343  and  _346
REMARK  140  A    between atoms: _349  and  _351
REMARK  141  A    between atoms: _351  and  _352
REMARK  142  A    between atoms: _351  and  _354
REMARK  143  A    between atoms: _354  and  _355
REMARK  144  A    between atoms: _355  and  _356
REMARK  145  A    between atoms: _356  and  _357
REMARK  146  A    between atoms: _357  and  _358
REMARK  147  A    between atoms: _362  and  _364
REMARK  148  A    between atoms: _364  and  _365
REMARK  149  A    between atoms: _364  and  _367
REMARK  150  A    between atoms: _367  and  _368
REMARK  151  A    between atoms: _368  and  _369
REMARK  152  A    between atoms: _371  and  _373
REMARK  153  A    between atoms: _373  and  _374
REMARK  154  A    between atoms: _373  and  _376
REMARK  155  A    between atoms: _376  and  _377
REMARK  156  A    between atoms: _380  and  _382
REMARK  157  A    between atoms: _382  and  _383
REMARK  158  A    between atoms: _385  and  _387
REMARK  159  A    between atoms: _387  and  _388
REMARK  160  A    between atoms: _390  and  _392
REMARK  161  A    between atoms: _392  and  _393
REMARK  162  A    between atoms: _392  and  _395
REMARK  163  A    between atoms: _395  and  _396
REMARK  164  A    between atoms: _399  and  _401
REMARK  165  A    between atoms: _401  and  _402
REMARK  166  A    between atoms: _404  and  _406
REMARK  167  A    between atoms: _406  and  _407
REMARK  168  A    between atoms: _409  and  _411
REMARK  169  A    between atoms: _411  and  _412
REMARK  170  A    between atoms: _411  and  _414
REMARK  171  A    between atoms: _414  and  _415
REMARK  172  A    between atoms: _421  and  _423
REMARK  173  A    between atoms: _423  and  _424
REMARK  174  A    between atoms: _423  and  _426
REMARK  175  A    between atoms: _426  and  _427
REMARK  176  A    between atoms: _431  and  _432
REMARK  177  A    between atoms: _437  and  _439
REMARK  178  A    between atoms: _439  and  _440
REMARK  179  A    between atoms: _439  and  _442
REMARK  180  A    between atoms: _445  and  _447
REMARK  181  A    between atoms: _447  and  _448
REMARK  182  A    between atoms: _447  and  _450
REMARK  183  A    between atoms: _450  and  _451
REMARK  184  A    between atoms: _456  and  _458
REMARK  185  A    between atoms: _458  and  _459
REMARK  186  A    between atoms: _458  and  _461
REMARK  187  A    between atoms: _461  and  _462
REMARK  188  A    between atoms: _465  and  _467
REMARK  189  A    between atoms: _467  and  _468
REMARK  190  A    between atoms: _467  and  _470
REMARK  191  A    between atoms: _470  and  _471
REMARK  192  A    between atoms: _474  and  _476
REMARK  193  A    between atoms: _476  and  _477
REMARK  194  A    between atoms: _479  and  _481
REMARK  195  A    between atoms: _481  and  _482
REMARK  196  A    between atoms: _481  and  _484
REMARK  197  A    between atoms: _484  and  _485
REMARK  198  A    between atoms: _485  and  _486
REMARK  199  A    between atoms: _486  and  _487
REMARK                            x       y       z     vdW  Elec       q    Type
REMARK                         _______ _______ _______ _____ _____    ______ ____
ROOT
ATOM      1  O   HOH     1      15.302  -5.212  12.187  0.00  0.00    +0.000 OA
ENDROOT
TORSDOF 0
REMARK  Name = ../refined-set-2016/2q54/2q54_pocket.pdb
REMARK  199 active torsions:
REMARK  status: ('A' for Active; 'I' for Inactive)
REMARK    1  A    between atoms: _1  and  _3
REMARK    2  A    between atoms: _3  and  _4
REMARK    3  A    between atoms: _3  and  _6
REMARK    4  A    between atoms: _6  and  _7
REMARK    5  A    between atoms: _7  and  _8
REMARK    6  A    between atoms: _8  and  _9
REMARK    7  A    between atoms: _18  and  _20
REMARK    8  A    between atoms: _20  and  _21
REMARK    9  A    between atoms: _20  and  _23
REMARK   10  A    between atoms: _23  and  _24
REMARK   11  A    between atoms: _27  and  _29
REMARK   12  A    between atoms: _29  and  _30
REMARK   13  A    between atoms: _29  and  _32
REMARK   14  A    between atoms: _32  and  _33
REMARK   15  A    between atoms: _36  and  _38
REMARK   16  A    between atoms: _38  and  _39
REMARK   17  A    between atoms: _38  and  _41
REMARK   18  A    between atoms: _41  and  _42
REMARK   19  A    between atoms: _45  and  _47
REMARK   20  A    between atoms: _47  and  _48
REMARK   21  A    between atoms: _47  and  _50
REMARK   22  A    between atoms: _50  and  _51
REMARK   23  A    between atoms: _54  and  _56
REMARK   24  A    between atoms: _56  and  _57
REMARK   25  A    between atoms: _59  and  _61
REMARK   26  A    between atoms: _61  and  _62
REMARK   27  A    between atoms: _65  and  _67
REMARK   28  A    between atoms: _67  and  _68
REMARK   29  A    between atoms: _67  and  _70
REMARK   30  A    between atoms: _70  and  _71
REMARK   31  A    between atoms: _74  and  _76
REMARK   32  A    between atoms: _76  and  _77
REMARK   33  A    between atoms: _76  and  _79
REMARK   34  A    between atoms: _79  and  _80
REMARK   35  A    between atoms: _83  and  _85
REMARK   36  A    between atoms: _85  and  _86
REMARK   37  A    between atoms: _85  and  _88
REMARK   38  A    between atoms: _88  and  _89
REMARK   39  A    between atoms: _92  and  _94
REMARK   40  A    between atoms: _94  and  _95
REMARK   41  A    between atoms: _94  and  _97
REMARK   42  A    between atoms: _100  and  _102
REMARK   43  A    between atoms: _102  and  _103
REMARK   44  A    between atoms: _102  and  _105
REMARK   45  A    between atoms: _105  and  _106
REMARK   46  A    between atoms: _109  and  _111
REMARK   47  A    between atoms: _111  and  _112
REMARK   48  A    between atoms: _114  and  _116
REMARK   49  A    between atoms: _116  and  _117
REMARK   50  A    between atoms: _119  and  _121
REMARK   51  A    between atoms: _121  and  _122
REMARK   52  A    between atoms: _121  and  _124
REMARK   53  A    between atoms: _124  and  _125
REMARK   54  A    between atoms: _128  and  _130
REMARK   55  A    between atoms: _130  and  _131
REMARK   56  A    between atoms: _133  and  _135
REMARK   57  A    between atoms: _135  and  _136
REMARK   58  A    between atoms: _138  and  _140
REMARK   59  A    between atoms: _140  and  _141
REMARK   60  A    between atoms: _140  and  _143
REMARK   61  A    between atoms: _143  and  _144
REMARK   62  A    between atoms: _150  and  _152
REMARK   63  A    between atoms: _152  and  _153
REMARK   64  A    between atoms: _152  and  _155
REMARK   65  A    between atoms: _155  and  _156
REMARK   66  A    between atoms: _159  and  _161
REMARK   67  A    between atoms: _161  and  _162
REMARK   68  A    between atoms: _161  and  _164
REMARK   69  A    between atoms: _164  and  _165
REMARK   70  A    between atoms: _169  and  _170
REMARK   71  A    between atoms: _175  and  _177
REMARK   72  A    between atoms: _177  and  _178
REMARK   73  A    between atoms: _177  and  _180
REMARK   74  A    between atoms: _180  and  _181
REMARK   75  A    between atoms: _185  and  _186
REMARK   76  A    between atoms: _191  and  _193
REMARK   77  A    between atoms: _193  and  _194
REMARK   78  A    between atoms: _193  and  _196
REMARK   79  A    between atoms: _199  and  _201
REMARK   80  A    between atoms: _201  and  _202
REMARK   81  A    between atoms: _201  and  _204
REMARK   82  A    between atoms: _204  and  _205
REMARK   83  A    between atoms: _210  and  _212
REMARK   84  A    between atoms: _212  and  _213
REMARK   85  A    between atoms: _212  and  _215
REMARK   86  A    between atoms: _215  and  _216
REMARK   87  A    between atoms: _219  and  _221
REMARK   88  A    between atoms: _221  and  _222
REMARK   89  A    between atoms: _221  and  _224
REMARK   90  A    between atoms: _224  and  _225
REMARK   91  A    between atoms: _228  and  _230
REMARK   92  A    between atoms: _230  and  _231
REMARK   93  A    between atoms: _233  and  _235
REMARK   94  A    between atoms: _235  and  _236
REMARK   95  A    between atoms: _235  and  _238
REMARK   96  A    between atoms: _238  and  _239
REMARK   97  A    between atoms: _239  and  _240
REMARK   98  A    between atoms: _240  and  _241
REMARK   99  A    between atoms: _250  and  _252
REMARK  100  A    between atoms: _252  and  _253
REMARK  101  A    between atoms: _252  and  _255
REMARK  102  A    between atoms: _255  and  _256
REMARK  103  A    between atoms: _256  and  _257
REMARK  104  A    between atoms: _257  and  _258
REMARK  105  A    between atoms: _267  and  _269
REMARK  106  A    between atoms: _269  and  _270
REMARK  107  A    between atoms: _269  and  _272
REMARK  108  A    between atoms: _272  and  _273
REMARK  109  A    between atoms: _276  and  _278
REMARK  110  A    between atoms: _278  and  _279
REMARK  111  A    between atoms: _278  and  _281
REMARK  112  A    between atoms: _281  and  _282
REMARK  113  A    between atoms: _285  and  _287
REMARK  114  A    between atoms: _287  and  _288
REMARK  115  A    between atoms: _287  and  _290
REMARK  116  A    between atoms: _290  and  _291
REMARK  117  A    between atoms: _294  and  _296
REMARK  118  A    between atoms: _296  and  _297
REMARK  119  A    between atoms: _296  and  _299
REMARK  120  A    between atoms: _299  and  _300
REMARK  121  A    between atoms: _303  and  _305
REMARK  122  A    between atoms: _305  and  _306
REMARK  123  A    between atoms: _308  and  _310
REMARK  124  A    between atoms: _310  and  _311
REMARK  125  A    between atoms: _314  and  _316
REMARK  126  A    between atoms: _316  and  _317
REMARK  127  A    between atoms: _316  and  _319
REMARK  128  A    between atoms: _319  and  _320
REMARK  129  A    between atoms: _323  and  _325
REMARK  130  A    between atoms: _325  and  _326
REMARK  131  A    between atoms: _325  and  _328
REMARK  132  A    between atoms: _328  and  _329
REMARK  133  A    between atoms: _332  and  _334
REMARK  134  A    between atoms: _334  and  _335
REMARK  135  A    between atoms: _334  and  _337
REMARK  136  A    between atoms: _337  and  _338
REMARK  137  A    between atoms: _341  and  _343
REMARK  138  A    between atoms: _343  and  _344
REMARK  139  A    between atoms: _343  and  _346
REMARK  140  A    between atoms: _349  and  _351
REMARK  141  A    between atoms: _351  and  _352
REMARK  142  A    between atoms: _351  and  _354
REMARK  143  A    between atoms: _354  and  _355
REMARK  144  A    between atoms: _355  and  _356
REMARK  145  A    between atoms: _356  and  _357
REMARK  146  A    between atoms: _357  and  _358
REMARK  147  A    between atoms: _362  and  _364
REMARK  148  A    between atoms: _364  and  _365
REMARK  149  A    between atoms: _364  and  _367
REMARK  150  A    between atoms: _367  and  _368
REMARK  151  A    between atoms: _368  and  _369
REMARK  152  A    between atoms: _371  and  _373
REMARK  153  A    between atoms: _373  and  _374
REMARK  154  A    between atoms: _373  and  _376
REMARK  155  A    between atoms: _376  and  _377
REMARK  156  A    between atoms: _380  and  _382
REMARK  157  A    between atoms: _382  and  _383
REMARK  158  A    between atoms: _385  and  _387
REMARK  159  A    between atoms: _387  and  _388
REMARK  160  A    between atoms: _390  and  _392
REMARK  161  A    between atoms: _392  and  _393
REMARK  162  A    between atoms: _392  and  _395
REMARK  163  A    between atoms: _395  and  _396
REMARK  164  A    between atoms: _399  and  _401
REMARK  165  A    between atoms: _401  and  _402
REMARK  166  A    between atoms: _404  and  _406
REMARK  167  A    between atoms: _406  and  _407
REMARK  168  A    between atoms: _409  and  _411
REMARK  169  A    between atoms: _411  and  _412
REMARK  170  A    between atoms: _411  and  _414
REMARK  171  A    between atoms: _414  and  _415
REMARK  172  A    between atoms: _421  and  _423
REMARK  173  A    between atoms: _423  and  _424
REMARK  174  A    between atoms: _423  and  _426
REMARK  175  A    between atoms: _426  and  _427
REMARK  176  A    between atoms: _431  and  _432
REMARK  177  A    between atoms: _437  and  _439
REMARK  178  A    between atoms: _439  and  _440
REMARK  179  A    between atoms: _439  and  _442
REMARK  180  A    between atoms: _445  and  _447
REMARK  181  A    between atoms: _447  and  _448
REMARK  182  A    between atoms: _447  and  _450
REMARK  183  A    between atoms: _450  and  _451
REMARK  184  A    between atoms: _456  and  _458
REMARK  185  A    between atoms: _458  and  _459
REMARK  186  A    between atoms: _458  and  _461
REMARK  187  A    between atoms: _461  and  _462
REMARK  188  A    between atoms: _465  and  _467
REMARK  189  A    between atoms: _467  and  _468
REMARK  190  A    between atoms: _467  and  _470
REMARK  191  A    between atoms: _470  and  _471
REMARK  192  A    between atoms: _474  and  _476
REMARK  193  A    between atoms: _476  and  _477
REMARK  194  A    between atoms: _479  and  _481
REMARK  195  A    between atoms: _481  and  _482
REMARK  196  A    between atoms: _481  and  _484
REMARK  197  A    between atoms: _484  and  _485
REMARK  198  A    between atoms: _485  and  _486
REMARK  199  A    between atoms: _486  and  _487
REMARK                            x       y       z     vdW  Elec       q    Type
REMARK                         _______ _______ _______ _____ _____    ______ ____
ROOT
ATOM      1  O   HOH     1      14.818   8.669  20.046  0.00  0.00    +0.000 OA
ENDROOT
TORSDOF 0
REMARK  Name = ../refined-set-2016/2q54/2q54_pocket.pdb
REMARK  199 active torsions:
REMARK  status: ('A' for Active; 'I' for Inactive)
REMARK    1  A    between atoms: _1  and  _3
REMARK    2  A    between atoms: _3  and  _4
REMARK    3  A    between atoms: _3  and  _6
REMARK    4  A    between atoms: _6  and  _7
REMARK    5  A    between atoms: _7  and  _8
REMARK    6  A    between atoms: _8  and  _9
REMARK    7  A    between atoms: _18  and  _20
REMARK    8  A    between atoms: _20  and  _21
REMARK    9  A    between atoms: _20  and  _23
REMARK   10  A    between atoms: _23  and  _24
REMARK   11  A    between atoms: _27  and  _29
REMARK   12  A    between atoms: _29  and  _30
REMARK   13  A    between atoms: _29  and  _32
REMARK   14  A    between atoms: _32  and  _33
REMARK   15  A    between atoms: _36  and  _38
REMARK   16  A    between atoms: _38  and  _39
REMARK   17  A    between atoms: _38  and  _41
REMARK   18  A    between atoms: _41  and  _42
REMARK   19  A    between atoms: _45  and  _47
REMARK   20  A    between atoms: _47  and  _48
REMARK   21  A    between atoms: _47  and  _50
REMARK   22  A    between atoms: _50  and  _51
REMARK   23  A    between atoms: _54  and  _56
REMARK   24  A    between atoms: _56  and  _57
REMARK   25  A    between atoms: _59  and  _61
REMARK   26  A    between atoms: _61  and  _62
REMARK   27  A    between atoms: _65  and  _67
REMARK   28  A    between atoms: _67  and  _68
REMARK   29  A    between atoms: _67  and  _70
REMARK   30  A    between atoms: _70  and  _71
REMARK   31  A    between atoms: _74  and  _76
REMARK   32  A    between atoms: _76  and  _77
REMARK   33  A    between atoms: _76  and  _79
REMARK   34  A    between atoms: _79  and  _80
REMARK   35  A    between atoms: _83  and  _85
REMARK   36  A    between atoms: _85  and  _86
REMARK   37  A    between atoms: _85  and  _88
REMARK   38  A    between atoms: _88  and  _89
REMARK   39  A    between atoms: _92  and  _94
REMARK   40  A    between atoms: _94  and  _95
REMARK   41  A    between atoms: _94  and  _97
REMARK   42  A    between atoms: _100  and  _102
REMARK   43  A    between atoms: _102  and  _103
REMARK   44  A    between atoms: _102  and  _105
REMARK   45  A    between atoms: _105  and  _106
REMARK   46  A    between atoms: _109  and  _111
REMARK   47  A    between atoms: _111  and  _112
REMARK   48  A    between atoms: _114  and  _116
REMARK   49  A    between atoms: _116  and  _117
REMARK   50  A    between atoms: _119  and  _121
REMARK   51  A    between atoms: _121  and  _122
REMARK   52  A    between atoms: _121  and  _124
REMARK   53  A    between atoms: _124  and  _125
REMARK   54  A    between atoms: _128  and  _130
REMARK   55  A    between atoms: _130  and  _131
REMARK   56  A    between atoms: _133  and  _135
REMARK   57  A    between atoms: _135  and  _136
REMARK   58  A    between atoms: _138  and  _140
REMARK   59  A    between atoms: _140  and  _141
REMARK   60  A    between atoms: _140  and  _143
REMARK   61  A    between atoms: _143  and  _144
REMARK   62  A    between atoms: _150  and  _152
REMARK   63  A    between atoms: _152  and  _153
REMARK   64  A    between atoms: _152  and  _155
REMARK   65  A    between atoms: _155  and  _156
REMARK   66  A    between atoms: _159  and  _161
REMARK   67  A    between atoms: _161  and  _162
REMARK   68  A    between atoms: _161  and  _164
REMARK   69  A    between atoms: _164  and  _165
REMARK   70  A    between atoms: _169  and  _170
REMARK   71  A    between atoms: _175  and  _177
REMARK   72  A    between atoms: _177  and  _178
REMARK   73  A    between atoms: _177  and  _180
REMARK   74  A    between atoms: _180  and  _181
REMARK   75  A    between atoms: _185  and  _186
REMARK   76  A    between atoms: _191  and  _193
REMARK   77  A    between atoms: _193  and  _194
REMARK   78  A    between atoms: _193  and  _196
REMARK   79  A    between atoms: _199  and  _201
REMARK   80  A    between atoms: _201  and  _202
REMARK   81  A    between atoms: _201  and  _204
REMARK   82  A    between atoms: _204  and  _205
REMARK   83  A    between atoms: _210  and  _212
REMARK   84  A    between atoms: _212  and  _213
REMARK   85  A    between atoms: _212  and  _215
REMARK   86  A    between atoms: _215  and  _216
REMARK   87  A    between atoms: _219  and  _221
REMARK   88  A    between atoms: _221  and  _222
REMARK   89  A    between atoms: _221  and  _224
REMARK   90  A    between atoms: _224  and  _225
REMARK   91  A    between atoms: _228  and  _230
REMARK   92  A    between atoms: _230  and  _231
REMARK   93  A    between atoms: _233  and  _235
REMARK   94  A    between atoms: _235  and  _236
REMARK   95  A    between atoms: _235  and  _238
REMARK   96  A    between atoms: _238  and  _239
REMARK   97  A    between atoms: _239  and  _240
REMARK   98  A    between atoms: _240  and  _241
REMARK   99  A    between atoms: _250  and  _252
REMARK  100  A    between atoms: _252  and  _253
REMARK  101  A    between atoms: _252  and  _255
REMARK  102  A    between atoms: _255  and  _256
REMARK  103  A    between atoms: _256  and  _257
REMARK  104  A    between atoms: _257  and  _258
REMARK  105  A    between atoms: _267  and  _269
REMARK  106  A    between atoms: _269  and  _270
REMARK  107  A    between atoms: _269  and  _272
REMARK  108  A    between atoms: _272  and  _273
REMARK  109  A    between atoms: _276  and  _278
REMARK  110  A    between atoms: _278  and  _279
REMARK  111  A    between atoms: _278  and  _281
REMARK  112  A    between atoms: _281  and  _282
REMARK  113  A    between atoms: _285  and  _287
REMARK  114  A    between atoms: _287  and  _288
REMARK  115  A    between atoms: _287  and  _290
REMARK  116  A    between atoms: _290  and  _291
REMARK  117  A    between atoms: _294  and  _296
REMARK  118  A    between atoms: _296  and  _297
REMARK  119  A    between atoms: _296  and  _299
REMARK  120  A    between atoms: _299  and  _300
REMARK  121  A    between atoms: _303  and  _305
REMARK  122  A    between atoms: _305  and  _306
REMARK  123  A    between atoms: _308  and  _310
REMARK  124  A    between atoms: _310  and  _311
REMARK  125  A    between atoms: _314  and  _316
REMARK  126  A    between atoms: _316  and  _317
REMARK  127  A    between atoms: _316  and  _319
REMARK  128  A    between atoms: _319  and  _320
REMARK  129  A    between atoms: _323  and  _325
REMARK  130  A    between atoms: _325  and  _326
REMARK  131  A    between atoms: _325  and  _328
REMARK  132  A    between atoms: _328  and  _329
REMARK  133  A    between atoms: _332  and  _334
REMARK  134  A    between atoms: _334  and  _335
REMARK  135  A    between atoms: _334  and  _337
REMARK  136  A    between atoms: _337  and  _338
REMARK  137  A    between atoms: _341  and  _343
REMARK  138  A    between atoms: _343  and  _344
REMARK  139  A    between atoms: _343  and  _346
REMARK  140  A    between atoms: _349  and  _351
REMARK  141  A    between atoms: _351  and  _352
REMARK  142  A    between atoms: _351  and  _354
REMARK  143  A    between atoms: _354  and  _355
REMARK  144  A    between atoms: _355  and  _356
REMARK  145  A    between atoms: _356  and  _357
REMARK  146  A    between atoms: _357  and  _358
REMARK  147  A    between atoms: _362  and  _364
REMARK  148  A    between atoms: _364  and  _365
REMARK  149  A    between atoms: _364  and  _367
REMARK  150  A    between atoms: _367  and  _368
REMARK  151  A    between atoms: _368  and  _369
REMARK  152  A    between atoms: _371  and  _373
REMARK  153  A    between atoms: _373  and  _374
REMARK  154  A    between atoms: _373  and  _376
REMARK  155  A    between atoms: _376  and  _377
REMARK  156  A    between atoms: _380  and  _382
REMARK  157  A    between atoms: _382  and  _383
REMARK  158  A    between atoms: _385  and  _387
REMARK  159  A    between atoms: _387  and  _388
REMARK  160  A    between atoms: _390  and  _392
REMARK  161  A    between atoms: _392  and  _393
REMARK  162  A    between atoms: _392  and  _395
REMARK  163  A    between atoms: _395  and  _396
REMARK  164  A    between atoms: _399  and  _401
REMARK  165  A    between atoms: _401  and  _402
REMARK  166  A    between atoms: _404  and  _406
REMARK  167  A    between atoms: _406  and  _407
REMARK  168  A    between atoms: _409  and  _411
REMARK  169  A    between atoms: _411  and  _412
REMARK  170  A    between atoms: _411  and  _414
REMARK  171  A    between atoms: _414  and  _415
REMARK  172  A    between atoms: _421  and  _423
REMARK  173  A    between atoms: _423  and  _424
REMARK  174  A    between atoms: _423  and  _426
REMARK  175  A    between atoms: _426  and  _427
REMARK  176  A    between atoms: _431  and  _432
REMARK  177  A    between atoms: _437  and  _439
REMARK  178  A    between atoms: _439  and  _440
REMARK  179  A    between atoms: _439  and  _442
REMARK  180  A    between atoms: _445  and  _447
REMARK  181  A    between atoms: _447  and  _448
REMARK  182  A    between atoms: _447  and  _450
REMARK  183  A    between atoms: _450  and  _451
REMARK  184  A    between atoms: _456  and  _458
REMARK  185  A    between atoms: _458  and  _459
REMARK  186  A    between atoms: _458  and  _461
REMARK  187  A    between atoms: _461  and  _462
REMARK  188  A    between atoms: _465  and  _467
REMARK  189  A    between atoms: _467  and  _468
REMARK  190  A    between atoms: _467  and  _470
REMARK  191  A    between atoms: _470  and  _471
REMARK  192  A    between atoms: _474  and  _476
REMARK  193  A    between atoms: _476  and  _477
REMARK  194  A    between atoms: _479  and  _481
REMARK  195  A    between atoms: _481  and  _482
REMARK  196  A    between atoms: _481  and  _484
REMARK  197  A    between atoms: _484  and  _485
REMARK  198  A    between atoms: _485  and  _486
REMARK  199  A    between atoms: _486  and  _487
REMARK                            x       y       z     vdW  Elec       q    Type
REMARK                         _______ _______ _______ _____ _____    ______ ____
ROOT
ATOM      1  O   HOH     1      12.253   8.212  19.861  0.00  0.00    +0.000 OA
ENDROOT
TORSDOF 0
