REMARK  Name = ../refined-set-2016/2il2/2il2_pocket.pdb
REMARK  282 active torsions:
REMARK  status: ('A' for Active; 'I' for Inactive)
REMARK    1  A    between atoms: _1  and  _3
REMARK    2  A    between atoms: _3  and  _4
REMARK    3  A    between atoms: _3  and  _6
REMARK    4  A    between atoms: _6  and  _7
REMARK    5  A    between atoms: _10  and  _12
REMARK    6  A    between atoms: _12  and  _13
REMARK    7  A    between atoms: _12  and  _15
REMARK    8  A    between atoms: _15  and  _16
REMARK    9  A    between atoms: _19  and  _21
REMARK   10  A    between atoms: _21  and  _22
REMARK   11  A    between atoms: _21  and  _24
REMARK   12  A    between atoms: _24  and  _25
REMARK   13  A    between atoms: _30  and  _31
REMARK   14  A    between atoms: _33  and  _35
REMARK   15  A    between atoms: _35  and  _36
REMARK   16  A    between atoms: _35  and  _38
REMARK   17  A    between atoms: _38  and  _39
REMARK   18  A    between atoms: _42  and  _44
REMARK   19  A    between atoms: _44  and  _45
REMARK   20  A    between atoms: _44  and  _47
REMARK   21  A    between atoms: _47  and  _48
REMARK   22  A    between atoms: _51  and  _53
REMARK   23  A    between atoms: _53  and  _54
REMARK   24  A    between atoms: _53  and  _56
REMARK   25  A    between atoms: _56  and  _57
REMARK   26  A    between atoms: _57  and  _58
REMARK   27  A    between atoms: _63  and  _65
REMARK   28  A    between atoms: _65  and  _66
REMARK   29  A    between atoms: _65  and  _68
REMARK   30  A    between atoms: _68  and  _69
REMARK   31  A    between atoms: _74  and  _75
REMARK   32  A    between atoms: _77  and  _79
REMARK   33  A    between atoms: _79  and  _80
REMARK   34  A    between atoms: _79  and  _82
REMARK   35  A    between atoms: _82  and  _83
REMARK   36  A    between atoms: _88  and  _89
REMARK   37  A    between atoms: _91  and  _93
REMARK   38  A    between atoms: _93  and  _94
REMARK   39  A    between atoms: _93  and  _96
REMARK   40  A    between atoms: _99  and  _101
REMARK   41  A    between atoms: _101  and  _102
REMARK   42  A    between atoms: _101  and  _104
REMARK   43  A    between atoms: _107  and  _109
REMARK   44  A    between atoms: _109  and  _110
REMARK   45  A    between atoms: _109  and  _112
REMARK   46  A    between atoms: _112  and  _113
REMARK   47  A    between atoms: _119  and  _121
REMARK   48  A    between atoms: _121  and  _122
REMARK   49  A    between atoms: _121  and  _124
REMARK   50  A    between atoms: _124  and  _125
REMARK   51  A    between atoms: _128  and  _130
REMARK   52  A    between atoms: _130  and  _131
REMARK   53  A    between atoms: _130  and  _133
REMARK   54  A    between atoms: _133  and  _134
REMARK   55  A    between atoms: _137  and  _139
REMARK   56  A    between atoms: _139  and  _140
REMARK   57  A    between atoms: _142  and  _144
REMARK   58  A    between atoms: _144  and  _145
REMARK   59  A    between atoms: _144  and  _147
REMARK   60  A    between atoms: _147  and  _148
REMARK   61  A    between atoms: _150  and  _152
REMARK   62  A    between atoms: _152  and  _153
REMARK   63  A    between atoms: _152  and  _155
REMARK   64  A    between atoms: _155  and  _156
REMARK   65  A    between atoms: _158  and  _160
REMARK   66  A    between atoms: _160  and  _161
REMARK   67  A    between atoms: _160  and  _163
REMARK   68  A    between atoms: _163  and  _164
REMARK   69  A    between atoms: _174  and  _176
REMARK   70  A    between atoms: _176  and  _177
REMARK   71  A    between atoms: _176  and  _179
REMARK   72  A    between atoms: _179  and  _180
REMARK   73  A    between atoms: _180  and  _181
REMARK   74  A    between atoms: _181  and  _182
REMARK   75  A    between atoms: _191  and  _193
REMARK   76  A    between atoms: _193  and  _194
REMARK   77  A    between atoms: _193  and  _196
REMARK   78  A    between atoms: _196  and  _197
REMARK   79  A    between atoms: _202  and  _203
REMARK   80  A    between atoms: _205  and  _207
REMARK   81  A    between atoms: _207  and  _208
REMARK   82  A    between atoms: _207  and  _210
REMARK   83  A    between atoms: _210  and  _211
REMARK   84  A    between atoms: _213  and  _215
REMARK   85  A    between atoms: _215  and  _216
REMARK   86  A    between atoms: _215  and  _218
REMARK   87  A    between atoms: _218  and  _219
REMARK   88  A    between atoms: _222  and  _224
REMARK   89  A    between atoms: _224  and  _225
REMARK   90  A    between atoms: _227  and  _229
REMARK   91  A    between atoms: _229  and  _230
REMARK   92  A    between atoms: _229  and  _232
REMARK   93  A    between atoms: _232  and  _233
REMARK   94  A    between atoms: _236  and  _238
REMARK   95  A    between atoms: _238  and  _239
REMARK   96  A    between atoms: _238  and  _241
REMARK   97  A    between atoms: _244  and  _246
REMARK   98  A    between atoms: _246  and  _247
REMARK   99  A    between atoms: _250  and  _252
REMARK  100  A    between atoms: _252  and  _253
REMARK  101  A    between atoms: _252  and  _255
REMARK  102  A    between atoms: _255  and  _256
REMARK  103  A    between atoms: _260  and  _261
REMARK  104  A    between atoms: _266  and  _268
REMARK  105  A    between atoms: _268  and  _269
REMARK  106  A    between atoms: _268  and  _271
REMARK  107  A    between atoms: _271  and  _272
REMARK  108  A    between atoms: _278  and  _280
REMARK  109  A    between atoms: _280  and  _281
REMARK  110  A    between atoms: _280  and  _283
REMARK  111  A    between atoms: _283  and  _284
REMARK  112  A    between atoms: _284  and  _285
REMARK  113  A    between atoms: _287  and  _289
REMARK  114  A    between atoms: _289  and  _290
REMARK  115  A    between atoms: _289  and  _292
REMARK  116  A    between atoms: _292  and  _293
REMARK  117  A    between atoms: _296  and  _298
REMARK  118  A    between atoms: _298  and  _299
REMARK  119  A    between atoms: _302  and  _304
REMARK  120  A    between atoms: _304  and  _305
REMARK  121  A    between atoms: _304  and  _307
REMARK  122  A    between atoms: _307  and  _308
REMARK  123  A    between atoms: _308  and  _309
REMARK  124  A    between atoms: _312  and  _314
REMARK  125  A    between atoms: _314  and  _315
REMARK  126  A    between atoms: _314  and  _317
REMARK  127  A    between atoms: _317  and  _318
REMARK  128  A    between atoms: _324  and  _326
REMARK  129  A    between atoms: _326  and  _327
REMARK  130  A    between atoms: _329  and  _331
REMARK  131  A    between atoms: _331  and  _332
REMARK  132  A    between atoms: _331  and  _334
REMARK  133  A    between atoms: _337  and  _339
REMARK  134  A    between atoms: _339  and  _340
REMARK  135  A    between atoms: _339  and  _342
REMARK  136  A    between atoms: _345  and  _347
REMARK  137  A    between atoms: _347  and  _348
REMARK  138  A    between atoms: _350  and  _352
REMARK  139  A    between atoms: _352  and  _353
REMARK  140  A    between atoms: _352  and  _355
REMARK  141  A    between atoms: _355  and  _356
REMARK  142  A    between atoms: _356  and  _357
REMARK  143  A    between atoms: _359  and  _361
REMARK  144  A    between atoms: _361  and  _362
REMARK  145  A    between atoms: _361  and  _364
REMARK  146  A    between atoms: _364  and  _365
REMARK  147  A    between atoms: _371  and  _373
REMARK  148  A    between atoms: _373  and  _374
REMARK  149  A    between atoms: _373  and  _376
REMARK  150  A    between atoms: _376  and  _377
REMARK  151  A    between atoms: _382  and  _383
REMARK  152  A    between atoms: _385  and  _387
REMARK  153  A    between atoms: _387  and  _388
REMARK  154  A    between atoms: _387  and  _390
REMARK  155  A    between atoms: _390  and  _391
REMARK  156  A    between atoms: _394  and  _396
REMARK  157  A    between atoms: _396  and  _397
REMARK  158  A    between atoms: _396  and  _399
REMARK  159  A    between atoms: _402  and  _404
REMARK  160  A    between atoms: _404  and  _405
REMARK  161  A    between atoms: _404  and  _407
REMARK  162  A    between atoms: _407  and  _408
REMARK  163  A    between atoms: _411  and  _413
REMARK  164  A    between atoms: _413  and  _414
REMARK  165  A    between atoms: _413  and  _416
REMARK  166  A    between atoms: _416  and  _417
REMARK  167  A    between atoms: _420  and  _422
REMARK  168  A    between atoms: _422  and  _423
REMARK  169  A    between atoms: _425  and  _427
REMARK  170  A    between atoms: _427  and  _428
REMARK  171  A    between atoms: _431  and  _433
REMARK  172  A    between atoms: _433  and  _434
REMARK  173  A    between atoms: _433  and  _436
REMARK  174  A    between atoms: _436  and  _437
REMARK  175  A    between atoms: _439  and  _441
REMARK  176  A    between atoms: _441  and  _442
REMARK  177  A    between atoms: _441  and  _444
REMARK  178  A    between atoms: _444  and  _445
REMARK  179  A    between atoms: _450  and  _451
REMARK  180  A    between atoms: _453  and  _455
REMARK  181  A    between atoms: _455  and  _456
REMARK  182  A    between atoms: _455  and  _458
REMARK  183  A    between atoms: _458  and  _459
REMARK  184  A    between atoms: _462  and  _464
REMARK  185  A    between atoms: _464  and  _465
REMARK  186  A    between atoms: _464  and  _467
REMARK  187  A    between atoms: _467  and  _468
REMARK  188  A    between atoms: _470  and  _472
REMARK  189  A    between atoms: _472  and  _473
REMARK  190  A    between atoms: _475  and  _477
REMARK  191  A    between atoms: _477  and  _478
REMARK  192  A    between atoms: _477  and  _480
REMARK  193  A    between atoms: _480  and  _481
REMARK  194  A    between atoms: _481  and  _482
REMARK  195  A    between atoms: _482  and  _483
REMARK  196  A    between atoms: _483  and  _484
REMARK  197  A    between atoms: _488  and  _490
REMARK  198  A    between atoms: _490  and  _491
REMARK  199  A    between atoms: _490  and  _493
REMARK  200  A    between atoms: _493  and  _494
REMARK  201  A    between atoms: _500  and  _502
REMARK  202  A    between atoms: _502  and  _503
REMARK  203  A    between atoms: _502  and  _505
REMARK  204  A    between atoms: _505  and  _506
REMARK  205  A    between atoms: _509  and  _511
REMARK  206  A    between atoms: _511  and  _512
REMARK  207  A    between atoms: _511  and  _514
REMARK  208  A    between atoms: _514  and  _515
REMARK  209  A    between atoms: _520  and  _521
REMARK  210  A    between atoms: _523  and  _525
REMARK  211  A    between atoms: _525  and  _526
REMARK  212  A    between atoms: _529  and  _531
REMARK  213  A    between atoms: _531  and  _532
REMARK  214  A    between atoms: _531  and  _534
REMARK  215  A    between atoms: _534  and  _535
REMARK  216  A    between atoms: _538  and  _540
REMARK  217  A    between atoms: _540  and  _541
REMARK  218  A    between atoms: _540  and  _543
REMARK  219  A    between atoms: _543  and  _544
REMARK  220  A    between atoms: _549  and  _551
REMARK  221  A    between atoms: _551  and  _552
REMARK  222  A    between atoms: _555  and  _557
REMARK  223  A    between atoms: _557  and  _558
REMARK  224  A    between atoms: _557  and  _560
REMARK  225  A    between atoms: _560  and  _561
REMARK  226  A    between atoms: _561  and  _562
REMARK  227  A    between atoms: _564  and  _566
REMARK  228  A    between atoms: _566  and  _567
REMARK  229  A    between atoms: _566  and  _569
REMARK  230  A    between atoms: _569  and  _570
REMARK  231  A    between atoms: _573  and  _575
REMARK  232  A    between atoms: _575  and  _576
REMARK  233  A    between atoms: _575  and  _578
REMARK  234  A    between atoms: _578  and  _579
REMARK  235  A    between atoms: _582  and  _584
REMARK  236  A    between atoms: _584  and  _585
REMARK  237  A    between atoms: _588  and  _590
REMARK  238  A    between atoms: _590  and  _591
REMARK  239  A    between atoms: _590  and  _593
REMARK  240  A    between atoms: _593  and  _594
REMARK  241  A    between atoms: _597  and  _599
REMARK  242  A    between atoms: _599  and  _600
REMARK  243  A    between atoms: _602  and  _604
REMARK  244  A    between atoms: _604  and  _605
REMARK  245  A    between atoms: _608  and  _610
REMARK  246  A    between atoms: _610  and  _611
REMARK  247  A    between atoms: _610  and  _613
REMARK  248  A    between atoms: _613  and  _614
REMARK  249  A    between atoms: _617  and  _619
REMARK  250  A    between atoms: _619  and  _620
REMARK  251  A    between atoms: _619  and  _622
REMARK  252  A    between atoms: _622  and  _623
REMARK  253  A    between atoms: _626  and  _628
REMARK  254  A    between atoms: _628  and  _629
REMARK  255  A    between atoms: _628  and  _631
REMARK  256  A    between atoms: _631  and  _632
REMARK  257  A    between atoms: _632  and  _633
REMARK  258  A    between atoms: _633  and  _634
REMARK  259  A    between atoms: _643  and  _645
REMARK  260  A    between atoms: _645  and  _646
REMARK  261  A    between atoms: _645  and  _648
REMARK  262  A    between atoms: _648  and  _649
REMARK  263  A    between atoms: _649  and  _650
REMARK  264  A    between atoms: _650  and  _651
REMARK  265  A    between atoms: _651  and  _652
REMARK  266  A    between atoms: _656  and  _658
REMARK  267  A    between atoms: _658  and  _659
REMARK  268  A    between atoms: _658  and  _661
REMARK  269  A    between atoms: _661  and  _662
REMARK  270  A    between atoms: _667  and  _669
REMARK  271  A    between atoms: _669  and  _670
REMARK  272  A    between atoms: _669  and  _672
REMARK  273  A    between atoms: _672  and  _673
REMARK  274  A    between atoms: _673  and  _674
REMARK  275  A    between atoms: _677  and  _679
REMARK  276  A    between atoms: _679  and  _680
REMARK  277  A    between atoms: _679  and  _682
REMARK  278  A    between atoms: _682  and  _683
REMARK  279  A    between atoms: _686  and  _688
REMARK  280  A    between atoms: _688  and  _689
REMARK  281  A    between atoms: _688  and  _691
REMARK  282  A    between atoms: _691  and  _692
REMARK                            x       y       z     vdW  Elec       q    Type
REMARK                         _______ _______ _______ _____ _____    ______ ____
ROOT
ATOM      1  C   LEU A   1     -44.796  -8.678 -26.735  0.00  0.00    +0.238 C 
ATOM      2  N   THR A   2     -45.107  -9.807 -26.106  0.00  0.00    -0.296 N 
ATOM      3  H   THR A   2     -46.081  -9.948 -25.771  0.00  0.00    +0.150 HD
ATOM      4  O   LEU A   1     -43.635  -8.336 -26.979  0.00  0.00    -0.274 OA
ENDROOT
BRANCH   1   5
ATOM      5  CA  LEU A   1     -45.965  -7.786 -27.082  0.00  0.00    +0.145 C 
BRANCH   5   6
ATOM      6  N   LEU A   1     -45.554  -6.395 -26.978  0.00  0.00    -0.238 NA
ATOM      7  H   LEU A   1     -44.870  -6.023 -27.667  0.00  0.00    +0.142 HD
ENDBRANCH   5   6
BRANCH   5   8
ATOM      8  CB  LEU A   1     -46.508  -8.126 -28.486  0.00  0.00    +0.026 C 
BRANCH   8   9
ATOM      9  CG  LEU A   1     -47.680  -7.306 -29.059  0.00  0.00    +0.002 C 
ATOM     10  CD2 LEU A   1     -48.892  -7.252 -28.148  0.00  0.00    +0.000 C 
ATOM     11  CD1 LEU A   1     -48.070  -7.834 -30.439  0.00  0.00    +0.000 C 
ENDBRANCH   8   9
ENDBRANCH   5   8
ENDBRANCH   1   5
BRANCH   2  12
ATOM     12  CA  THR A   2     -44.116 -10.856 -25.873  0.00  0.00    +0.164 C 
BRANCH  12  13
ATOM     13  CB  THR A   2     -44.374 -11.594 -24.550  0.00  0.00    +0.136 C 
ATOM     14  CG2 THR A   2     -43.403 -12.746 -24.361  0.00  0.00    +0.034 C 
BRANCH  13  15
ATOM     15  OG1 THR A   2     -44.237 -10.678 -23.462  0.00  0.00    -0.382 OA
ATOM     16  HG1 THR A   2     -44.403 -11.153 -22.609  0.00  0.00    +0.210 HD
ENDBRANCH  13  15
ENDBRANCH  12  13
BRANCH  12  17
ATOM     17  C   THR A   2     -44.205 -11.832 -27.050  0.00  0.00    +0.229 C 
ATOM     18  O   THR A   2     -45.295 -12.205 -27.485  0.00  0.00    -0.286 OA
ENDBRANCH  12  17
ENDBRANCH   2  12
TORSDOF 8
REMARK  Name = ../refined-set-2016/2il2/2il2_pocket.pdb
REMARK  282 active torsions:
REMARK  status: ('A' for Active; 'I' for Inactive)
REMARK    1  A    between atoms: _1  and  _3
REMARK    2  A    between atoms: _3  and  _4
REMARK    3  A    between atoms: _3  and  _6
REMARK    4  A    between atoms: _6  and  _7
REMARK    5  A    between atoms: _10  and  _12
REMARK    6  A    between atoms: _12  and  _13
REMARK    7  A    between atoms: _12  and  _15
REMARK    8  A    between atoms: _15  and  _16
REMARK    9  A    between atoms: _19  and  _21
REMARK   10  A    between atoms: _21  and  _22
REMARK   11  A    between atoms: _21  and  _24
REMARK   12  A    between atoms: _24  and  _25
REMARK   13  A    between atoms: _30  and  _31
REMARK   14  A    between atoms: _33  and  _35
REMARK   15  A    between atoms: _35  and  _36
REMARK   16  A    between atoms: _35  and  _38
REMARK   17  A    between atoms: _38  and  _39
REMARK   18  A    between atoms: _42  and  _44
REMARK   19  A    between atoms: _44  and  _45
REMARK   20  A    between atoms: _44  and  _47
REMARK   21  A    between atoms: _47  and  _48
REMARK   22  A    between atoms: _51  and  _53
REMARK   23  A    between atoms: _53  and  _54
REMARK   24  A    between atoms: _53  and  _56
REMARK   25  A    between atoms: _56  and  _57
REMARK   26  A    between atoms: _57  and  _58
REMARK   27  A    between atoms: _63  and  _65
REMARK   28  A    between atoms: _65  and  _66
REMARK   29  A    between atoms: _65  and  _68
REMARK   30  A    between atoms: _68  and  _69
REMARK   31  A    between atoms: _74  and  _75
REMARK   32  A    between atoms: _77  and  _79
REMARK   33  A    between atoms: _79  and  _80
REMARK   34  A    between atoms: _79  and  _82
REMARK   35  A    between atoms: _82  and  _83
REMARK   36  A    between atoms: _88  and  _89
REMARK   37  A    between atoms: _91  and  _93
REMARK   38  A    between atoms: _93  and  _94
REMARK   39  A    between atoms: _93  and  _96
REMARK   40  A    between atoms: _99  and  _101
REMARK   41  A    between atoms: _101  and  _102
REMARK   42  A    between atoms: _101  and  _104
REMARK   43  A    between atoms: _107  and  _109
REMARK   44  A    between atoms: _109  and  _110
REMARK   45  A    between atoms: _109  and  _112
REMARK   46  A    between atoms: _112  and  _113
REMARK   47  A    between atoms: _119  and  _121
REMARK   48  A    between atoms: _121  and  _122
REMARK   49  A    between atoms: _121  and  _124
REMARK   50  A    between atoms: _124  and  _125
REMARK   51  A    between atoms: _128  and  _130
REMARK   52  A    between atoms: _130  and  _131
REMARK   53  A    between atoms: _130  and  _133
REMARK   54  A    between atoms: _133  and  _134
REMARK   55  A    between atoms: _137  and  _139
REMARK   56  A    between atoms: _139  and  _140
REMARK   57  A    between atoms: _142  and  _144
REMARK   58  A    between atoms: _144  and  _145
REMARK   59  A    between atoms: _144  and  _147
REMARK   60  A    between atoms: _147  and  _148
REMARK   61  A    between atoms: _150  and  _152
REMARK   62  A    between atoms: _152  and  _153
REMARK   63  A    between atoms: _152  and  _155
REMARK   64  A    between atoms: _155  and  _156
REMARK   65  A    between atoms: _158  and  _160
REMARK   66  A    between atoms: _160  and  _161
REMARK   67  A    between atoms: _160  and  _163
REMARK   68  A    between atoms: _163  and  _164
REMARK   69  A    between atoms: _174  and  _176
REMARK   70  A    between atoms: _176  and  _177
REMARK   71  A    between atoms: _176  and  _179
REMARK   72  A    between atoms: _179  and  _180
REMARK   73  A    between atoms: _180  and  _181
REMARK   74  A    between atoms: _181  and  _182
REMARK   75  A    between atoms: _191  and  _193
REMARK   76  A    between atoms: _193  and  _194
REMARK   77  A    between atoms: _193  and  _196
REMARK   78  A    between atoms: _196  and  _197
REMARK   79  A    between atoms: _202  and  _203
REMARK   80  A    between atoms: _205  and  _207
REMARK   81  A    between atoms: _207  and  _208
REMARK   82  A    between atoms: _207  and  _210
REMARK   83  A    between atoms: _210  and  _211
REMARK   84  A    between atoms: _213  and  _215
REMARK   85  A    between atoms: _215  and  _216
REMARK   86  A    between atoms: _215  and  _218
REMARK   87  A    between atoms: _218  and  _219
REMARK   88  A    between atoms: _222  and  _224
REMARK   89  A    between atoms: _224  and  _225
REMARK   90  A    between atoms: _227  and  _229
REMARK   91  A    between atoms: _229  and  _230
REMARK   92  A    between atoms: _229  and  _232
REMARK   93  A    between atoms: _232  and  _233
REMARK   94  A    between atoms: _236  and  _238
REMARK   95  A    between atoms: _238  and  _239
REMARK   96  A    between atoms: _238  and  _241
REMARK   97  A    between atoms: _244  and  _246
REMARK   98  A    between atoms: _246  and  _247
REMARK   99  A    between atoms: _250  and  _252
REMARK  100  A    between atoms: _252  and  _253
REMARK  101  A    between atoms: _252  and  _255
REMARK  102  A    between atoms: _255  and  _256
REMARK  103  A    between atoms: _260  and  _261
REMARK  104  A    between atoms: _266  and  _268
REMARK  105  A    between atoms: _268  and  _269
REMARK  106  A    between atoms: _268  and  _271
REMARK  107  A    between atoms: _271  and  _272
REMARK  108  A    between atoms: _278  and  _280
REMARK  109  A    between atoms: _280  and  _281
REMARK  110  A    between atoms: _280  and  _283
REMARK  111  A    between atoms: _283  and  _284
REMARK  112  A    between atoms: _284  and  _285
REMARK  113  A    between atoms: _287  and  _289
REMARK  114  A    between atoms: _289  and  _290
REMARK  115  A    between atoms: _289  and  _292
REMARK  116  A    between atoms: _292  and  _293
REMARK  117  A    between atoms: _296  and  _298
REMARK  118  A    between atoms: _298  and  _299
REMARK  119  A    between atoms: _302  and  _304
REMARK  120  A    between atoms: _304  and  _305
REMARK  121  A    between atoms: _304  and  _307
REMARK  122  A    between atoms: _307  and  _308
REMARK  123  A    between atoms: _308  and  _309
REMARK  124  A    between atoms: _312  and  _314
REMARK  125  A    between atoms: _314  and  _315
REMARK  126  A    between atoms: _314  and  _317
REMARK  127  A    between atoms: _317  and  _318
REMARK  128  A    between atoms: _324  and  _326
REMARK  129  A    between atoms: _326  and  _327
REMARK  130  A    between atoms: _329  and  _331
REMARK  131  A    between atoms: _331  and  _332
REMARK  132  A    between atoms: _331  and  _334
REMARK  133  A    between atoms: _337  and  _339
REMARK  134  A    between atoms: _339  and  _340
REMARK  135  A    between atoms: _339  and  _342
REMARK  136  A    between atoms: _345  and  _347
REMARK  137  A    between atoms: _347  and  _348
REMARK  138  A    between atoms: _350  and  _352
REMARK  139  A    between atoms: _352  and  _353
REMARK  140  A    between atoms: _352  and  _355
REMARK  141  A    between atoms: _355  and  _356
REMARK  142  A    between atoms: _356  and  _357
REMARK  143  A    between atoms: _359  and  _361
REMARK  144  A    between atoms: _361  and  _362
REMARK  145  A    between atoms: _361  and  _364
REMARK  146  A    between atoms: _364  and  _365
REMARK  147  A    between atoms: _371  and  _373
REMARK  148  A    between atoms: _373  and  _374
REMARK  149  A    between atoms: _373  and  _376
REMARK  150  A    between atoms: _376  and  _377
REMARK  151  A    between atoms: _382  and  _383
REMARK  152  A    between atoms: _385  and  _387
REMARK  153  A    between atoms: _387  and  _388
REMARK  154  A    between atoms: _387  and  _390
REMARK  155  A    between atoms: _390  and  _391
REMARK  156  A    between atoms: _394  and  _396
REMARK  157  A    between atoms: _396  and  _397
REMARK  158  A    between atoms: _396  and  _399
REMARK  159  A    between atoms: _402  and  _404
REMARK  160  A    between atoms: _404  and  _405
REMARK  161  A    between atoms: _404  and  _407
REMARK  162  A    between atoms: _407  and  _408
REMARK  163  A    between atoms: _411  and  _413
REMARK  164  A    between atoms: _413  and  _414
REMARK  165  A    between atoms: _413  and  _416
REMARK  166  A    between atoms: _416  and  _417
REMARK  167  A    between atoms: _420  and  _422
REMARK  168  A    between atoms: _422  and  _423
REMARK  169  A    between atoms: _425  and  _427
REMARK  170  A    between atoms: _427  and  _428
REMARK  171  A    between atoms: _431  and  _433
REMARK  172  A    between atoms: _433  and  _434
REMARK  173  A    between atoms: _433  and  _436
REMARK  174  A    between atoms: _436  and  _437
REMARK  175  A    between atoms: _439  and  _441
REMARK  176  A    between atoms: _441  and  _442
REMARK  177  A    between atoms: _441  and  _444
REMARK  178  A    between atoms: _444  and  _445
REMARK  179  A    between atoms: _450  and  _451
REMARK  180  A    between atoms: _453  and  _455
REMARK  181  A    between atoms: _455  and  _456
REMARK  182  A    between atoms: _455  and  _458
REMARK  183  A    between atoms: _458  and  _459
REMARK  184  A    between atoms: _462  and  _464
REMARK  185  A    between atoms: _464  and  _465
REMARK  186  A    between atoms: _464  and  _467
REMARK  187  A    between atoms: _467  and  _468
REMARK  188  A    between atoms: _470  and  _472
REMARK  189  A    between atoms: _472  and  _473
REMARK  190  A    between atoms: _475  and  _477
REMARK  191  A    between atoms: _477  and  _478
REMARK  192  A    between atoms: _477  and  _480
REMARK  193  A    between atoms: _480  and  _481
REMARK  194  A    between atoms: _481  and  _482
REMARK  195  A    between atoms: _482  and  _483
REMARK  196  A    between atoms: _483  and  _484
REMARK  197  A    between atoms: _488  and  _490
REMARK  198  A    between atoms: _490  and  _491
REMARK  199  A    between atoms: _490  and  _493
REMARK  200  A    between atoms: _493  and  _494
REMARK  201  A    between atoms: _500  and  _502
REMARK  202  A    between atoms: _502  and  _503
REMARK  203  A    between atoms: _502  and  _505
REMARK  204  A    between atoms: _505  and  _506
REMARK  205  A    between atoms: _509  and  _511
REMARK  206  A    between atoms: _511  and  _512
REMARK  207  A    between atoms: _511  and  _514
REMARK  208  A    between atoms: _514  and  _515
REMARK  209  A    between atoms: _520  and  _521
REMARK  210  A    between atoms: _523  and  _525
REMARK  211  A    between atoms: _525  and  _526
REMARK  212  A    between atoms: _529  and  _531
REMARK  213  A    between atoms: _531  and  _532
REMARK  214  A    between atoms: _531  and  _534
REMARK  215  A    between atoms: _534  and  _535
REMARK  216  A    between atoms: _538  and  _540
REMARK  217  A    between atoms: _540  and  _541
REMARK  218  A    between atoms: _540  and  _543
REMARK  219  A    between atoms: _543  and  _544
REMARK  220  A    between atoms: _549  and  _551
REMARK  221  A    between atoms: _551  and  _552
REMARK  222  A    between atoms: _555  and  _557
REMARK  223  A    between atoms: _557  and  _558
REMARK  224  A    between atoms: _557  and  _560
REMARK  225  A    between atoms: _560  and  _561
REMARK  226  A    between atoms: _561  and  _562
REMARK  227  A    between atoms: _564  and  _566
REMARK  228  A    between atoms: _566  and  _567
REMARK  229  A    between atoms: _566  and  _569
REMARK  230  A    between atoms: _569  and  _570
REMARK  231  A    between atoms: _573  and  _575
REMARK  232  A    between atoms: _575  and  _576
REMARK  233  A    between atoms: _575  and  _578
REMARK  234  A    between atoms: _578  and  _579
REMARK  235  A    between atoms: _582  and  _584
REMARK  236  A    between atoms: _584  and  _585
REMARK  237  A    between atoms: _588  and  _590
REMARK  238  A    between atoms: _590  and  _591
REMARK  239  A    between atoms: _590  and  _593
REMARK  240  A    between atoms: _593  and  _594
REMARK  241  A    between atoms: _597  and  _599
REMARK  242  A    between atoms: _599  and  _600
REMARK  243  A    between atoms: _602  and  _604
REMARK  244  A    between atoms: _604  and  _605
REMARK  245  A    between atoms: _608  and  _610
REMARK  246  A    between atoms: _610  and  _611
REMARK  247  A    between atoms: _610  and  _613
REMARK  248  A    between atoms: _613  and  _614
REMARK  249  A    between atoms: _617  and  _619
REMARK  250  A    between atoms: _619  and  _620
REMARK  251  A    between atoms: _619  and  _622
REMARK  252  A    between atoms: _622  and  _623
REMARK  253  A    between atoms: _626  and  _628
REMARK  254  A    between atoms: _628  and  _629
REMARK  255  A    between atoms: _628  and  _631
REMARK  256  A    between atoms: _631  and  _632
REMARK  257  A    between atoms: _632  and  _633
REMARK  258  A    between atoms: _633  and  _634
REMARK  259  A    between atoms: _643  and  _645
REMARK  260  A    between atoms: _645  and  _646
REMARK  261  A    between atoms: _645  and  _648
REMARK  262  A    between atoms: _648  and  _649
REMARK  263  A    between atoms: _649  and  _650
REMARK  264  A    between atoms: _650  and  _651
REMARK  265  A    between atoms: _651  and  _652
REMARK  266  A    between atoms: _656  and  _658
REMARK  267  A    between atoms: _658  and  _659
REMARK  268  A    between atoms: _658  and  _661
REMARK  269  A    between atoms: _661  and  _662
REMARK  270  A    between atoms: _667  and  _669
REMARK  271  A    between atoms: _669  and  _670
REMARK  272  A    between atoms: _669  and  _672
REMARK  273  A    between atoms: _672  and  _673
REMARK  274  A    between atoms: _673  and  _674
REMARK  275  A    between atoms: _677  and  _679
REMARK  276  A    between atoms: _679  and  _680
REMARK  277  A    between atoms: _679  and  _682
REMARK  278  A    between atoms: _682  and  _683
REMARK  279  A    between atoms: _686  and  _688
REMARK  280  A    between atoms: _688  and  _689
REMARK  281  A    between atoms: _688  and  _691
REMARK  282  A    between atoms: _691  and  _692
REMARK                            x       y       z     vdW  Elec       q    Type
REMARK                         _______ _______ _______ _____ _____    ______ ____
ROOT
ATOM      1  CG  TYR A   1     -43.939 -18.828 -26.196  0.00  0.00    -0.020 A 
ATOM      2  CD2 TYR A   1     -43.024 -19.063 -25.188  0.00  0.00    -0.001 A 
ATOM      3  CE2 TYR A   1     -42.772 -20.365 -24.729  0.00  0.00    +0.036 A 
ATOM      4  CZ  TYR A   1     -43.454 -21.428 -25.291  0.00  0.00    +0.134 A 
ATOM      5  CE1 TYR A   1     -44.381 -21.201 -26.285  0.00  0.00    +0.036 A 
ATOM      6  CD1 TYR A   1     -44.611 -19.905 -26.734  0.00  0.00    -0.001 A 
ENDROOT
BRANCH   4   7
ATOM      7  OH  TYR A   1     -43.231 -22.704 -24.850  0.00  0.00    -0.506 OA
ATOM      8  HH  TYR A   1     -42.541 -22.691 -24.140  0.00  0.00    +0.292 HD
ENDBRANCH   4   7
BRANCH   1   9
ATOM      9  CB  TYR A   1     -44.210 -17.413 -26.685  0.00  0.00    +0.051 C 
BRANCH   9  10
ATOM     10  CA  TYR A   1     -43.071 -16.851 -27.524  0.00  0.00    +0.137 C 
BRANCH  10  11
ATOM     11  N   TYR A   1     -43.384 -15.512 -27.944  0.00  0.00    -0.239 NA
ATOM     12  H   TYR A   1     -44.337 -15.309 -28.308  0.00  0.00    +0.142 HD
ENDBRANCH  10  11
BRANCH  10  13
ATOM     13  C   TYR A   1     -42.811 -17.763 -28.729  0.00  0.00    +0.224 C 
ATOM     14  O   TYR A   1     -43.733 -18.118 -29.447  0.00  0.00    -0.287 OA
ENDBRANCH  10  13
ENDBRANCH   9  10
ENDBRANCH   1   9
TORSDOF 5
REMARK  Name = ../refined-set-2016/2il2/2il2_pocket.pdb
REMARK  282 active torsions:
REMARK  status: ('A' for Active; 'I' for Inactive)
REMARK    1  A    between atoms: _1  and  _3
REMARK    2  A    between atoms: _3  and  _4
REMARK    3  A    between atoms: _3  and  _6
REMARK    4  A    between atoms: _6  and  _7
REMARK    5  A    between atoms: _10  and  _12
REMARK    6  A    between atoms: _12  and  _13
REMARK    7  A    between atoms: _12  and  _15
REMARK    8  A    between atoms: _15  and  _16
REMARK    9  A    between atoms: _19  and  _21
REMARK   10  A    between atoms: _21  and  _22
REMARK   11  A    between atoms: _21  and  _24
REMARK   12  A    between atoms: _24  and  _25
REMARK   13  A    between atoms: _30  and  _31
REMARK   14  A    between atoms: _33  and  _35
REMARK   15  A    between atoms: _35  and  _36
REMARK   16  A    between atoms: _35  and  _38
REMARK   17  A    between atoms: _38  and  _39
REMARK   18  A    between atoms: _42  and  _44
REMARK   19  A    between atoms: _44  and  _45
REMARK   20  A    between atoms: _44  and  _47
REMARK   21  A    between atoms: _47  and  _48
REMARK   22  A    between atoms: _51  and  _53
REMARK   23  A    between atoms: _53  and  _54
REMARK   24  A    between atoms: _53  and  _56
REMARK   25  A    between atoms: _56  and  _57
REMARK   26  A    between atoms: _57  and  _58
REMARK   27  A    between atoms: _63  and  _65
REMARK   28  A    between atoms: _65  and  _66
REMARK   29  A    between atoms: _65  and  _68
REMARK   30  A    between atoms: _68  and  _69
REMARK   31  A    between atoms: _74  and  _75
REMARK   32  A    between atoms: _77  and  _79
REMARK   33  A    between atoms: _79  and  _80
REMARK   34  A    between atoms: _79  and  _82
REMARK   35  A    between atoms: _82  and  _83
REMARK   36  A    between atoms: _88  and  _89
REMARK   37  A    between atoms: _91  and  _93
REMARK   38  A    between atoms: _93  and  _94
REMARK   39  A    between atoms: _93  and  _96
REMARK   40  A    between atoms: _99  and  _101
REMARK   41  A    between atoms: _101  and  _102
REMARK   42  A    between atoms: _101  and  _104
REMARK   43  A    between atoms: _107  and  _109
REMARK   44  A    between atoms: _109  and  _110
REMARK   45  A    between atoms: _109  and  _112
REMARK   46  A    between atoms: _112  and  _113
REMARK   47  A    between atoms: _119  and  _121
REMARK   48  A    between atoms: _121  and  _122
REMARK   49  A    between atoms: _121  and  _124
REMARK   50  A    between atoms: _124  and  _125
REMARK   51  A    between atoms: _128  and  _130
REMARK   52  A    between atoms: _130  and  _131
REMARK   53  A    between atoms: _130  and  _133
REMARK   54  A    between atoms: _133  and  _134
REMARK   55  A    between atoms: _137  and  _139
REMARK   56  A    between atoms: _139  and  _140
REMARK   57  A    between atoms: _142  and  _144
REMARK   58  A    between atoms: _144  and  _145
REMARK   59  A    between atoms: _144  and  _147
REMARK   60  A    between atoms: _147  and  _148
REMARK   61  A    between atoms: _150  and  _152
REMARK   62  A    between atoms: _152  and  _153
REMARK   63  A    between atoms: _152  and  _155
REMARK   64  A    between atoms: _155  and  _156
REMARK   65  A    between atoms: _158  and  _160
REMARK   66  A    between atoms: _160  and  _161
REMARK   67  A    between atoms: _160  and  _163
REMARK   68  A    between atoms: _163  and  _164
REMARK   69  A    between atoms: _174  and  _176
REMARK   70  A    between atoms: _176  and  _177
REMARK   71  A    between atoms: _176  and  _179
REMARK   72  A    between atoms: _179  and  _180
REMARK   73  A    between atoms: _180  and  _181
REMARK   74  A    between atoms: _181  and  _182
REMARK   75  A    between atoms: _191  and  _193
REMARK   76  A    between atoms: _193  and  _194
REMARK   77  A    between atoms: _193  and  _196
REMARK   78  A    between atoms: _196  and  _197
REMARK   79  A    between atoms: _202  and  _203
REMARK   80  A    between atoms: _205  and  _207
REMARK   81  A    between atoms: _207  and  _208
REMARK   82  A    between atoms: _207  and  _210
REMARK   83  A    between atoms: _210  and  _211
REMARK   84  A    between atoms: _213  and  _215
REMARK   85  A    between atoms: _215  and  _216
REMARK   86  A    between atoms: _215  and  _218
REMARK   87  A    between atoms: _218  and  _219
REMARK   88  A    between atoms: _222  and  _224
REMARK   89  A    between atoms: _224  and  _225
REMARK   90  A    between atoms: _227  and  _229
REMARK   91  A    between atoms: _229  and  _230
REMARK   92  A    between atoms: _229  and  _232
REMARK   93  A    between atoms: _232  and  _233
REMARK   94  A    between atoms: _236  and  _238
REMARK   95  A    between atoms: _238  and  _239
REMARK   96  A    between atoms: _238  and  _241
REMARK   97  A    between atoms: _244  and  _246
REMARK   98  A    between atoms: _246  and  _247
REMARK   99  A    between atoms: _250  and  _252
REMARK  100  A    between atoms: _252  and  _253
REMARK  101  A    between atoms: _252  and  _255
REMARK  102  A    between atoms: _255  and  _256
REMARK  103  A    between atoms: _260  and  _261
REMARK  104  A    between atoms: _266  and  _268
REMARK  105  A    between atoms: _268  and  _269
REMARK  106  A    between atoms: _268  and  _271
REMARK  107  A    between atoms: _271  and  _272
REMARK  108  A    between atoms: _278  and  _280
REMARK  109  A    between atoms: _280  and  _281
REMARK  110  A    between atoms: _280  and  _283
REMARK  111  A    between atoms: _283  and  _284
REMARK  112  A    between atoms: _284  and  _285
REMARK  113  A    between atoms: _287  and  _289
REMARK  114  A    between atoms: _289  and  _290
REMARK  115  A    between atoms: _289  and  _292
REMARK  116  A    between atoms: _292  and  _293
REMARK  117  A    between atoms: _296  and  _298
REMARK  118  A    between atoms: _298  and  _299
REMARK  119  A    between atoms: _302  and  _304
REMARK  120  A    between atoms: _304  and  _305
REMARK  121  A    between atoms: _304  and  _307
REMARK  122  A    between atoms: _307  and  _308
REMARK  123  A    between atoms: _308  and  _309
REMARK  124  A    between atoms: _312  and  _314
REMARK  125  A    between atoms: _314  and  _315
REMARK  126  A    between atoms: _314  and  _317
REMARK  127  A    between atoms: _317  and  _318
REMARK  128  A    between atoms: _324  and  _326
REMARK  129  A    between atoms: _326  and  _327
REMARK  130  A    between atoms: _329  and  _331
REMARK  131  A    between atoms: _331  and  _332
REMARK  132  A    between atoms: _331  and  _334
REMARK  133  A    between atoms: _337  and  _339
REMARK  134  A    between atoms: _339  and  _340
REMARK  135  A    between atoms: _339  and  _342
REMARK  136  A    between atoms: _345  and  _347
REMARK  137  A    between atoms: _347  and  _348
REMARK  138  A    between atoms: _350  and  _352
REMARK  139  A    between atoms: _352  and  _353
REMARK  140  A    between atoms: _352  and  _355
REMARK  141  A    between atoms: _355  and  _356
REMARK  142  A    between atoms: _356  and  _357
REMARK  143  A    between atoms: _359  and  _361
REMARK  144  A    between atoms: _361  and  _362
REMARK  145  A    between atoms: _361  and  _364
REMARK  146  A    between atoms: _364  and  _365
REMARK  147  A    between atoms: _371  and  _373
REMARK  148  A    between atoms: _373  and  _374
REMARK  149  A    between atoms: _373  and  _376
REMARK  150  A    between atoms: _376  and  _377
REMARK  151  A    between atoms: _382  and  _383
REMARK  152  A    between atoms: _385  and  _387
REMARK  153  A    between atoms: _387  and  _388
REMARK  154  A    between atoms: _387  and  _390
REMARK  155  A    between atoms: _390  and  _391
REMARK  156  A    between atoms: _394  and  _396
REMARK  157  A    between atoms: _396  and  _397
REMARK  158  A    between atoms: _396  and  _399
REMARK  159  A    between atoms: _402  and  _404
REMARK  160  A    between atoms: _404  and  _405
REMARK  161  A    between atoms: _404  and  _407
REMARK  162  A    between atoms: _407  and  _408
REMARK  163  A    between atoms: _411  and  _413
REMARK  164  A    between atoms: _413  and  _414
REMARK  165  A    between atoms: _413  and  _416
REMARK  166  A    between atoms: _416  and  _417
REMARK  167  A    between atoms: _420  and  _422
REMARK  168  A    between atoms: _422  and  _423
REMARK  169  A    between atoms: _425  and  _427
REMARK  170  A    between atoms: _427  and  _428
REMARK  171  A    between atoms: _431  and  _433
REMARK  172  A    between atoms: _433  and  _434
REMARK  173  A    between atoms: _433  and  _436
REMARK  174  A    between atoms: _436  and  _437
REMARK  175  A    between atoms: _439  and  _441
REMARK  176  A    between atoms: _441  and  _442
REMARK  177  A    between atoms: _441  and  _444
REMARK  178  A    between atoms: _444  and  _445
REMARK  179  A    between atoms: _450  and  _451
REMARK  180  A    between atoms: _453  and  _455
REMARK  181  A    between atoms: _455  and  _456
REMARK  182  A    between atoms: _455  and  _458
REMARK  183  A    between atoms: _458  and  _459
REMARK  184  A    between atoms: _462  and  _464
REMARK  185  A    between atoms: _464  and  _465
REMARK  186  A    between atoms: _464  and  _467
REMARK  187  A    between atoms: _467  and  _468
REMARK  188  A    between atoms: _470  and  _472
REMARK  189  A    between atoms: _472  and  _473
REMARK  190  A    between atoms: _475  and  _477
REMARK  191  A    between atoms: _477  and  _478
REMARK  192  A    between atoms: _477  and  _480
REMARK  193  A    between atoms: _480  and  _481
REMARK  194  A    between atoms: _481  and  _482
REMARK  195  A    between atoms: _482  and  _483
REMARK  196  A    between atoms: _483  and  _484
REMARK  197  A    between atoms: _488  and  _490
REMARK  198  A    between atoms: _490  and  _491
REMARK  199  A    between atoms: _490  and  _493
REMARK  200  A    between atoms: _493  and  _494
REMARK  201  A    between atoms: _500  and  _502
REMARK  202  A    between atoms: _502  and  _503
REMARK  203  A    between atoms: _502  and  _505
REMARK  204  A    between atoms: _505  and  _506
REMARK  205  A    between atoms: _509  and  _511
REMARK  206  A    between atoms: _511  and  _512
REMARK  207  A    between atoms: _511  and  _514
REMARK  208  A    between atoms: _514  and  _515
REMARK  209  A    between atoms: _520  and  _521
REMARK  210  A    between atoms: _523  and  _525
REMARK  211  A    between atoms: _525  and  _526
REMARK  212  A    between atoms: _529  and  _531
REMARK  213  A    between atoms: _531  and  _532
REMARK  214  A    between atoms: _531  and  _534
REMARK  215  A    between atoms: _534  and  _535
REMARK  216  A    between atoms: _538  and  _540
REMARK  217  A    between atoms: _540  and  _541
REMARK  218  A    between atoms: _540  and  _543
REMARK  219  A    between atoms: _543  and  _544
REMARK  220  A    between atoms: _549  and  _551
REMARK  221  A    between atoms: _551  and  _552
REMARK  222  A    between atoms: _555  and  _557
REMARK  223  A    between atoms: _557  and  _558
REMARK  224  A    between atoms: _557  and  _560
REMARK  225  A    between atoms: _560  and  _561
REMARK  226  A    between atoms: _561  and  _562
REMARK  227  A    between atoms: _564  and  _566
REMARK  228  A    between atoms: _566  and  _567
REMARK  229  A    between atoms: _566  and  _569
REMARK  230  A    between atoms: _569  and  _570
REMARK  231  A    between atoms: _573  and  _575
REMARK  232  A    between atoms: _575  and  _576
REMARK  233  A    between atoms: _575  and  _578
REMARK  234  A    between atoms: _578  and  _579
REMARK  235  A    between atoms: _582  and  _584
REMARK  236  A    between atoms: _584  and  _585
REMARK  237  A    between atoms: _588  and  _590
REMARK  238  A    between atoms: _590  and  _591
REMARK  239  A    between atoms: _590  and  _593
REMARK  240  A    between atoms: _593  and  _594
REMARK  241  A    between atoms: _597  and  _599
REMARK  242  A    between atoms: _599  and  _600
REMARK  243  A    between atoms: _602  and  _604
REMARK  244  A    between atoms: _604  and  _605
REMARK  245  A    between atoms: _608  and  _610
REMARK  246  A    between atoms: _610  and  _611
REMARK  247  A    between atoms: _610  and  _613
REMARK  248  A    between atoms: _613  and  _614
REMARK  249  A    between atoms: _617  and  _619
REMARK  250  A    between atoms: _619  and  _620
REMARK  251  A    between atoms: _619  and  _622
REMARK  252  A    between atoms: _622  and  _623
REMARK  253  A    between atoms: _626  and  _628
REMARK  254  A    between atoms: _628  and  _629
REMARK  255  A    between atoms: _628  and  _631
REMARK  256  A    between atoms: _631  and  _632
REMARK  257  A    between atoms: _632  and  _633
REMARK  258  A    between atoms: _633  and  _634
REMARK  259  A    between atoms: _643  and  _645
REMARK  260  A    between atoms: _645  and  _646
REMARK  261  A    between atoms: _645  and  _648
REMARK  262  A    between atoms: _648  and  _649
REMARK  263  A    between atoms: _649  and  _650
REMARK  264  A    between atoms: _650  and  _651
REMARK  265  A    between atoms: _651  and  _652
REMARK  266  A    between atoms: _656  and  _658
REMARK  267  A    between atoms: _658  and  _659
REMARK  268  A    between atoms: _658  and  _661
REMARK  269  A    between atoms: _661  and  _662
REMARK  270  A    between atoms: _667  and  _669
REMARK  271  A    between atoms: _669  and  _670
REMARK  272  A    between atoms: _669  and  _672
REMARK  273  A    between atoms: _672  and  _673
REMARK  274  A    between atoms: _673  and  _674
REMARK  275  A    between atoms: _677  and  _679
REMARK  276  A    between atoms: _679  and  _680
REMARK  277  A    between atoms: _679  and  _682
REMARK  278  A    between atoms: _682  and  _683
REMARK  279  A    between atoms: _686  and  _688
REMARK  280  A    between atoms: _688  and  _689
REMARK  281  A    between atoms: _688  and  _691
REMARK  282  A    between atoms: _691  and  _692
REMARK                            x       y       z     vdW  Elec       q    Type
REMARK                         _______ _______ _______ _____ _____    ______ ____
ROOT
ATOM      1  C   GLN A   3     -47.003 -15.394 -29.679  0.00  0.00    +0.241 C 
ATOM      2  O   GLN A   3     -45.813 -15.226 -29.353  0.00  0.00    -0.273 OA
ATOM      3  N   TYR A   4     -47.888 -14.413 -29.830  0.00  0.00    -0.297 N 
ATOM      4  H   TYR A   4     -48.845 -14.661 -30.154  0.00  0.00    +0.150 HD
ENDROOT
BRANCH   3   5
ATOM      5  CA  TYR A   4     -47.597 -13.027 -29.570  0.00  0.00    +0.153 C 
BRANCH   5   6
ATOM      6  C   TYR A   4     -48.716 -12.422 -28.736  0.00  0.00    +0.241 C 
ATOM      7  N   TYR A   5     -48.383 -11.903 -27.555  0.00  0.00    -0.298 N 
ATOM      8  H   TYR A   5     -47.378 -11.853 -27.292  0.00  0.00    +0.150 HD
ATOM      9  O   TYR A   4     -49.863 -12.402 -29.173  0.00  0.00    -0.273 OA
BRANCH   7  10
ATOM     10  CA  TYR A   5     -49.389 -11.401 -26.616  0.00  0.00    +0.141 C 
BRANCH  10  11
ATOM     11  C   TYR A   5     -48.870 -10.244 -25.764  0.00  0.00    +0.227 C 
ATOM     12  O   TYR A   5     -47.668 -10.109 -25.533  0.00  0.00    -0.286 OA
ENDBRANCH  10  11
BRANCH  10  13
ATOM     13  CB  TYR A   5     -49.865 -12.537 -25.699  0.00  0.00    +0.054 C 
BRANCH  13  14
ATOM     14  CG  TYR A   5     -48.727 -13.400 -25.177  0.00  0.00    -0.020 A 
ATOM     15  CD2 TYR A   5     -48.097 -13.114 -23.970  0.00  0.00    -0.001 A 
ATOM     16  CE2 TYR A   5     -47.042 -13.909 -23.504  0.00  0.00    +0.036 A 
ATOM     17  CZ  TYR A   5     -46.609 -14.991 -24.277  0.00  0.00    +0.134 A 
ATOM     18  CE1 TYR A   5     -47.227 -15.279 -25.470  0.00  0.00    +0.036 A 
ATOM     19  CD1 TYR A   5     -48.267 -14.484 -25.916  0.00  0.00    -0.001 A 
BRANCH  17  20
ATOM     20  OH  TYR A   5     -45.550 -15.785 -23.872  0.00  0.00    -0.506 OA
ATOM     21  HH  TYR A   5     -45.765 -16.199 -22.999  0.00  0.00    +0.292 HD
ENDBRANCH  17  20
ENDBRANCH  13  14
ENDBRANCH  10  13
ENDBRANCH   7  10
ENDBRANCH   5   6
BRANCH   5  22
ATOM     22  CB  TYR A   4     -47.487 -12.267 -30.902  0.00  0.00    +0.055 C 
BRANCH  22  23
ATOM     23  CG  TYR A   4     -46.257 -12.617 -31.743  0.00  0.00    -0.020 A 
ATOM     24  CD2 TYR A   4     -45.096 -11.879 -31.644  0.00  0.00    -0.001 A 
ATOM     25  CE2 TYR A   4     -43.980 -12.185 -32.416  0.00  0.00    +0.036 A 
ATOM     26  CZ  TYR A   4     -44.033 -13.222 -33.313  0.00  0.00    +0.134 A 
ATOM     27  CE1 TYR A   4     -45.162 -13.978 -33.416  0.00  0.00    +0.036 A 
ATOM     28  CD1 TYR A   4     -46.269 -13.683 -32.632  0.00  0.00    -0.001 A 
BRANCH  26  29
ATOM     29  OH  TYR A   4     -42.901 -13.522 -34.071  0.00  0.00    -0.506 OA
ATOM     30  HH  TYR A   4     -42.653 -12.734 -34.617  0.00  0.00    +0.292 HD
ENDBRANCH  26  29
ENDBRANCH  22  23
ENDBRANCH   5  22
ENDBRANCH   3   5
BRANCH   1  31
ATOM     31  CA  GLN A   3     -47.535 -16.790 -29.949  0.00  0.00    +0.149 C 
BRANCH  31  33
ATOM     32  C   THR A   2     -46.846 -18.212 -31.820  0.00  0.00    +0.243 C 
ATOM     33  N   GLN A   3     -46.540 -17.519 -30.725  0.00  0.00    -0.297 N 
ATOM     34  H   GLN A   3     -45.549 -17.497 -30.410  0.00  0.00    +0.150 HD
ATOM     35  O   THR A   2     -47.990 -18.434 -32.162  0.00  0.00    -0.273 OA
BRANCH  32  36
ATOM     36  CA  THR A   2     -45.696 -18.816 -32.641  0.00  0.00    +0.176 C 
BRANCH  36  38
ATOM     37  C   ASP A   1     -43.674 -17.653 -33.338  0.00  0.00    +0.239 C 
ATOM     38  N   THR A   2     -44.359 -18.261 -32.375  0.00  0.00    -0.295 N 
ATOM     39  H   THR A   2     -43.946 -18.345 -31.424  0.00  0.00    +0.150 HD
ATOM     40  O   ASP A   1     -44.142 -17.500 -34.476  0.00  0.00    -0.274 OA
BRANCH  37  41
ATOM     41  CA  ASP A   1     -42.283 -17.096 -33.000  0.00  0.00    +0.156 C 
BRANCH  41  42
ATOM     42  N   ASP A   1     -41.695 -17.524 -31.711  0.00  0.00    -0.238 NA
ATOM     43  H   ASP A   1     -41.411 -16.792 -31.029  0.00  0.00    +0.142 HD
ENDBRANCH  41  42
BRANCH  41  44
ATOM     44  CB  ASP A   1     -41.322 -17.391 -34.152  0.00  0.00    +0.140 C 
BRANCH  44  45
ATOM     45  CG  ASP A   1     -40.120 -16.491 -34.145  0.00  0.00    +0.367 C 
ATOM     46  OD2 ASP A   1     -40.252 -15.285 -33.863  0.00  0.00    -0.246 OA
ATOM     47  OD1 ASP A   1     -39.017 -16.997 -34.404  0.00  0.00    -0.246 OA
ENDBRANCH  44  45
ENDBRANCH  41  44
ENDBRANCH  37  41
ENDBRANCH  36  38
BRANCH  36  48
ATOM     48  CB  THR A   2     -45.748 -20.321 -32.387  0.00  0.00    +0.137 C 
ATOM     49  CG2 THR A   2     -44.783 -21.061 -33.301  0.00  0.00    +0.034 C 
BRANCH  48  50
ATOM     50  OG1 THR A   2     -45.436 -20.566 -31.013  0.00  0.00    -0.382 OA
ATOM     51  HG1 THR A   2     -45.467 -21.540 -30.837  0.00  0.00    +0.210 HD
ENDBRANCH  48  50
ENDBRANCH  36  48
ENDBRANCH  32  36
ENDBRANCH  31  33
BRANCH  31  52
ATOM     52  CB  GLN A   3     -47.853 -17.479 -28.619  0.00  0.00    +0.039 C 
BRANCH  52  53
ATOM     53  CG  GLN A   3     -48.034 -18.977 -28.710  0.00  0.00    +0.087 C 
BRANCH  53  54
ATOM     54  CD  GLN A   3     -48.427 -19.613 -27.402  0.00  0.00    +0.219 C 
ATOM     55  OE1 GLN A   3     -48.986 -18.961 -26.518  0.00  0.00    -0.275 OA
ATOM     56  NE2 GLN A   3     -48.135 -20.904 -27.265  0.00  0.00    -0.329 N 
ATOM     57 HE21 GLN A   3     -48.379 -21.402 -26.385  0.00  0.00    +0.145 HD
ATOM     58 HE22 GLN A   3     -47.662 -21.415 -28.038  0.00  0.00    +0.145 HD
ENDBRANCH  53  54
ENDBRANCH  52  53
ENDBRANCH  31  52
ENDBRANCH   1  31
TORSDOF 23
REMARK  Name = ../refined-set-2016/2il2/2il2_pocket.pdb
REMARK  282 active torsions:
REMARK  status: ('A' for Active; 'I' for Inactive)
REMARK    1  A    between atoms: _1  and  _3
REMARK    2  A    between atoms: _3  and  _4
REMARK    3  A    between atoms: _3  and  _6
REMARK    4  A    between atoms: _6  and  _7
REMARK    5  A    between atoms: _10  and  _12
REMARK    6  A    between atoms: _12  and  _13
REMARK    7  A    between atoms: _12  and  _15
REMARK    8  A    between atoms: _15  and  _16
REMARK    9  A    between atoms: _19  and  _21
REMARK   10  A    between atoms: _21  and  _22
REMARK   11  A    between atoms: _21  and  _24
REMARK   12  A    between atoms: _24  and  _25
REMARK   13  A    between atoms: _30  and  _31
REMARK   14  A    between atoms: _33  and  _35
REMARK   15  A    between atoms: _35  and  _36
REMARK   16  A    between atoms: _35  and  _38
REMARK   17  A    between atoms: _38  and  _39
REMARK   18  A    between atoms: _42  and  _44
REMARK   19  A    between atoms: _44  and  _45
REMARK   20  A    between atoms: _44  and  _47
REMARK   21  A    between atoms: _47  and  _48
REMARK   22  A    between atoms: _51  and  _53
REMARK   23  A    between atoms: _53  and  _54
REMARK   24  A    between atoms: _53  and  _56
REMARK   25  A    between atoms: _56  and  _57
REMARK   26  A    between atoms: _57  and  _58
REMARK   27  A    between atoms: _63  and  _65
REMARK   28  A    between atoms: _65  and  _66
REMARK   29  A    between atoms: _65  and  _68
REMARK   30  A    between atoms: _68  and  _69
REMARK   31  A    between atoms: _74  and  _75
REMARK   32  A    between atoms: _77  and  _79
REMARK   33  A    between atoms: _79  and  _80
REMARK   34  A    between atoms: _79  and  _82
REMARK   35  A    between atoms: _82  and  _83
REMARK   36  A    between atoms: _88  and  _89
REMARK   37  A    between atoms: _91  and  _93
REMARK   38  A    between atoms: _93  and  _94
REMARK   39  A    between atoms: _93  and  _96
REMARK   40  A    between atoms: _99  and  _101
REMARK   41  A    between atoms: _101  and  _102
REMARK   42  A    between atoms: _101  and  _104
REMARK   43  A    between atoms: _107  and  _109
REMARK   44  A    between atoms: _109  and  _110
REMARK   45  A    between atoms: _109  and  _112
REMARK   46  A    between atoms: _112  and  _113
REMARK   47  A    between atoms: _119  and  _121
REMARK   48  A    between atoms: _121  and  _122
REMARK   49  A    between atoms: _121  and  _124
REMARK   50  A    between atoms: _124  and  _125
REMARK   51  A    between atoms: _128  and  _130
REMARK   52  A    between atoms: _130  and  _131
REMARK   53  A    between atoms: _130  and  _133
REMARK   54  A    between atoms: _133  and  _134
REMARK   55  A    between atoms: _137  and  _139
REMARK   56  A    between atoms: _139  and  _140
REMARK   57  A    between atoms: _142  and  _144
REMARK   58  A    between atoms: _144  and  _145
REMARK   59  A    between atoms: _144  and  _147
REMARK   60  A    between atoms: _147  and  _148
REMARK   61  A    between atoms: _150  and  _152
REMARK   62  A    between atoms: _152  and  _153
REMARK   63  A    between atoms: _152  and  _155
REMARK   64  A    between atoms: _155  and  _156
REMARK   65  A    between atoms: _158  and  _160
REMARK   66  A    between atoms: _160  and  _161
REMARK   67  A    between atoms: _160  and  _163
REMARK   68  A    between atoms: _163  and  _164
REMARK   69  A    between atoms: _174  and  _176
REMARK   70  A    between atoms: _176  and  _177
REMARK   71  A    between atoms: _176  and  _179
REMARK   72  A    between atoms: _179  and  _180
REMARK   73  A    between atoms: _180  and  _181
REMARK   74  A    between atoms: _181  and  _182
REMARK   75  A    between atoms: _191  and  _193
REMARK   76  A    between atoms: _193  and  _194
REMARK   77  A    between atoms: _193  and  _196
REMARK   78  A    between atoms: _196  and  _197
REMARK   79  A    between atoms: _202  and  _203
REMARK   80  A    between atoms: _205  and  _207
REMARK   81  A    between atoms: _207  and  _208
REMARK   82  A    between atoms: _207  and  _210
REMARK   83  A    between atoms: _210  and  _211
REMARK   84  A    between atoms: _213  and  _215
REMARK   85  A    between atoms: _215  and  _216
REMARK   86  A    between atoms: _215  and  _218
REMARK   87  A    between atoms: _218  and  _219
REMARK   88  A    between atoms: _222  and  _224
REMARK   89  A    between atoms: _224  and  _225
REMARK   90  A    between atoms: _227  and  _229
REMARK   91  A    between atoms: _229  and  _230
REMARK   92  A    between atoms: _229  and  _232
REMARK   93  A    between atoms: _232  and  _233
REMARK   94  A    between atoms: _236  and  _238
REMARK   95  A    between atoms: _238  and  _239
REMARK   96  A    between atoms: _238  and  _241
REMARK   97  A    between atoms: _244  and  _246
REMARK   98  A    between atoms: _246  and  _247
REMARK   99  A    between atoms: _250  and  _252
REMARK  100  A    between atoms: _252  and  _253
REMARK  101  A    between atoms: _252  and  _255
REMARK  102  A    between atoms: _255  and  _256
REMARK  103  A    between atoms: _260  and  _261
REMARK  104  A    between atoms: _266  and  _268
REMARK  105  A    between atoms: _268  and  _269
REMARK  106  A    between atoms: _268  and  _271
REMARK  107  A    between atoms: _271  and  _272
REMARK  108  A    between atoms: _278  and  _280
REMARK  109  A    between atoms: _280  and  _281
REMARK  110  A    between atoms: _280  and  _283
REMARK  111  A    between atoms: _283  and  _284
REMARK  112  A    between atoms: _284  and  _285
REMARK  113  A    between atoms: _287  and  _289
REMARK  114  A    between atoms: _289  and  _290
REMARK  115  A    between atoms: _289  and  _292
REMARK  116  A    between atoms: _292  and  _293
REMARK  117  A    between atoms: _296  and  _298
REMARK  118  A    between atoms: _298  and  _299
REMARK  119  A    between atoms: _302  and  _304
REMARK  120  A    between atoms: _304  and  _305
REMARK  121  A    between atoms: _304  and  _307
REMARK  122  A    between atoms: _307  and  _308
REMARK  123  A    between atoms: _308  and  _309
REMARK  124  A    between atoms: _312  and  _314
REMARK  125  A    between atoms: _314  and  _315
REMARK  126  A    between atoms: _314  and  _317
REMARK  127  A    between atoms: _317  and  _318
REMARK  128  A    between atoms: _324  and  _326
REMARK  129  A    between atoms: _326  and  _327
REMARK  130  A    between atoms: _329  and  _331
REMARK  131  A    between atoms: _331  and  _332
REMARK  132  A    between atoms: _331  and  _334
REMARK  133  A    between atoms: _337  and  _339
REMARK  134  A    between atoms: _339  and  _340
REMARK  135  A    between atoms: _339  and  _342
REMARK  136  A    between atoms: _345  and  _347
REMARK  137  A    between atoms: _347  and  _348
REMARK  138  A    between atoms: _350  and  _352
REMARK  139  A    between atoms: _352  and  _353
REMARK  140  A    between atoms: _352  and  _355
REMARK  141  A    between atoms: _355  and  _356
REMARK  142  A    between atoms: _356  and  _357
REMARK  143  A    between atoms: _359  and  _361
REMARK  144  A    between atoms: _361  and  _362
REMARK  145  A    between atoms: _361  and  _364
REMARK  146  A    between atoms: _364  and  _365
REMARK  147  A    between atoms: _371  and  _373
REMARK  148  A    between atoms: _373  and  _374
REMARK  149  A    between atoms: _373  and  _376
REMARK  150  A    between atoms: _376  and  _377
REMARK  151  A    between atoms: _382  and  _383
REMARK  152  A    between atoms: _385  and  _387
REMARK  153  A    between atoms: _387  and  _388
REMARK  154  A    between atoms: _387  and  _390
REMARK  155  A    between atoms: _390  and  _391
REMARK  156  A    between atoms: _394  and  _396
REMARK  157  A    between atoms: _396  and  _397
REMARK  158  A    between atoms: _396  and  _399
REMARK  159  A    between atoms: _402  and  _404
REMARK  160  A    between atoms: _404  and  _405
REMARK  161  A    between atoms: _404  and  _407
REMARK  162  A    between atoms: _407  and  _408
REMARK  163  A    between atoms: _411  and  _413
REMARK  164  A    between atoms: _413  and  _414
REMARK  165  A    between atoms: _413  and  _416
REMARK  166  A    between atoms: _416  and  _417
REMARK  167  A    between atoms: _420  and  _422
REMARK  168  A    between atoms: _422  and  _423
REMARK  169  A    between atoms: _425  and  _427
REMARK  170  A    between atoms: _427  and  _428
REMARK  171  A    between atoms: _431  and  _433
REMARK  172  A    between atoms: _433  and  _434
REMARK  173  A    between atoms: _433  and  _436
REMARK  174  A    between atoms: _436  and  _437
REMARK  175  A    between atoms: _439  and  _441
REMARK  176  A    between atoms: _441  and  _442
REMARK  177  A    between atoms: _441  and  _444
REMARK  178  A    between atoms: _444  and  _445
REMARK  179  A    between atoms: _450  and  _451
REMARK  180  A    between atoms: _453  and  _455
REMARK  181  A    between atoms: _455  and  _456
REMARK  182  A    between atoms: _455  and  _458
REMARK  183  A    between atoms: _458  and  _459
REMARK  184  A    between atoms: _462  and  _464
REMARK  185  A    between atoms: _464  and  _465
REMARK  186  A    between atoms: _464  and  _467
REMARK  187  A    between atoms: _467  and  _468
REMARK  188  A    between atoms: _470  and  _472
REMARK  189  A    between atoms: _472  and  _473
REMARK  190  A    between atoms: _475  and  _477
REMARK  191  A    between atoms: _477  and  _478
REMARK  192  A    between atoms: _477  and  _480
REMARK  193  A    between atoms: _480  and  _481
REMARK  194  A    between atoms: _481  and  _482
REMARK  195  A    between atoms: _482  and  _483
REMARK  196  A    between atoms: _483  and  _484
REMARK  197  A    between atoms: _488  and  _490
REMARK  198  A    between atoms: _490  and  _491
REMARK  199  A    between atoms: _490  and  _493
REMARK  200  A    between atoms: _493  and  _494
REMARK  201  A    between atoms: _500  and  _502
REMARK  202  A    between atoms: _502  and  _503
REMARK  203  A    between atoms: _502  and  _505
REMARK  204  A    between atoms: _505  and  _506
REMARK  205  A    between atoms: _509  and  _511
REMARK  206  A    between atoms: _511  and  _512
REMARK  207  A    between atoms: _511  and  _514
REMARK  208  A    between atoms: _514  and  _515
REMARK  209  A    between atoms: _520  and  _521
REMARK  210  A    between atoms: _523  and  _525
REMARK  211  A    between atoms: _525  and  _526
REMARK  212  A    between atoms: _529  and  _531
REMARK  213  A    between atoms: _531  and  _532
REMARK  214  A    between atoms: _531  and  _534
REMARK  215  A    between atoms: _534  and  _535
REMARK  216  A    between atoms: _538  and  _540
REMARK  217  A    between atoms: _540  and  _541
REMARK  218  A    between atoms: _540  and  _543
REMARK  219  A    between atoms: _543  and  _544
REMARK  220  A    between atoms: _549  and  _551
REMARK  221  A    between atoms: _551  and  _552
REMARK  222  A    between atoms: _555  and  _557
REMARK  223  A    between atoms: _557  and  _558
REMARK  224  A    between atoms: _557  and  _560
REMARK  225  A    between atoms: _560  and  _561
REMARK  226  A    between atoms: _561  and  _562
REMARK  227  A    between atoms: _564  and  _566
REMARK  228  A    between atoms: _566  and  _567
REMARK  229  A    between atoms: _566  and  _569
REMARK  230  A    between atoms: _569  and  _570
REMARK  231  A    between atoms: _573  and  _575
REMARK  232  A    between atoms: _575  and  _576
REMARK  233  A    between atoms: _575  and  _578
REMARK  234  A    between atoms: _578  and  _579
REMARK  235  A    between atoms: _582  and  _584
REMARK  236  A    between atoms: _584  and  _585
REMARK  237  A    between atoms: _588  and  _590
REMARK  238  A    between atoms: _590  and  _591
REMARK  239  A    between atoms: _590  and  _593
REMARK  240  A    between atoms: _593  and  _594
REMARK  241  A    between atoms: _597  and  _599
REMARK  242  A    between atoms: _599  and  _600
REMARK  243  A    between atoms: _602  and  _604
REMARK  244  A    between atoms: _604  and  _605
REMARK  245  A    between atoms: _608  and  _610
REMARK  246  A    between atoms: _610  and  _611
REMARK  247  A    between atoms: _610  and  _613
REMARK  248  A    between atoms: _613  and  _614
REMARK  249  A    between atoms: _617  and  _619
REMARK  250  A    between atoms: _619  and  _620
REMARK  251  A    between atoms: _619  and  _622
REMARK  252  A    between atoms: _622  and  _623
REMARK  253  A    between atoms: _626  and  _628
REMARK  254  A    between atoms: _628  and  _629
REMARK  255  A    between atoms: _628  and  _631
REMARK  256  A    between atoms: _631  and  _632
REMARK  257  A    between atoms: _632  and  _633
REMARK  258  A    between atoms: _633  and  _634
REMARK  259  A    between atoms: _643  and  _645
REMARK  260  A    between atoms: _645  and  _646
REMARK  261  A    between atoms: _645  and  _648
REMARK  262  A    between atoms: _648  and  _649
REMARK  263  A    between atoms: _649  and  _650
REMARK  264  A    between atoms: _650  and  _651
REMARK  265  A    between atoms: _651  and  _652
REMARK  266  A    between atoms: _656  and  _658
REMARK  267  A    between atoms: _658  and  _659
REMARK  268  A    between atoms: _658  and  _661
REMARK  269  A    between atoms: _661  and  _662
REMARK  270  A    between atoms: _667  and  _669
REMARK  271  A    between atoms: _669  and  _670
REMARK  272  A    between atoms: _669  and  _672
REMARK  273  A    between atoms: _672  and  _673
REMARK  274  A    between atoms: _673  and  _674
REMARK  275  A    between atoms: _677  and  _679
REMARK  276  A    between atoms: _679  and  _680
REMARK  277  A    between atoms: _679  and  _682
REMARK  278  A    between atoms: _682  and  _683
REMARK  279  A    between atoms: _686  and  _688
REMARK  280  A    between atoms: _688  and  _689
REMARK  281  A    between atoms: _688  and  _691
REMARK  282  A    between atoms: _691  and  _692
REMARK                            x       y       z     vdW  Elec       q    Type
REMARK                         _______ _______ _______ _____ _____    ______ ____
ROOT
ATOM      1  CA  ASP A   4     -56.548 -11.075 -33.035  0.00  0.00    +0.160 C 
ENDROOT
BRANCH   1   3
ATOM      2  C   PHE A   3     -54.912  -9.797 -31.692  0.00  0.00    +0.241 C 
ATOM      3  N   ASP A   4     -56.168 -10.131 -31.980  0.00  0.00    -0.297 N 
ATOM      4  H   ASP A   4     -56.928  -9.694 -31.421  0.00  0.00    +0.150 HD
ATOM      5  O   PHE A   3     -53.989  -9.917 -32.478  0.00  0.00    -0.273 OA
BRANCH   2   6
ATOM      6  CA  PHE A   3     -54.678  -9.232 -30.296  0.00  0.00    +0.153 C 
BRANCH   6   9
ATOM      7  C   VAL A   2     -54.461 -11.162 -28.797  0.00  0.00    +0.241 C 
ATOM      8  O   VAL A   2     -55.673 -11.245 -28.562  0.00  0.00    -0.273 OA
ATOM      9  N   PHE A   3     -53.909 -10.223 -29.570  0.00  0.00    -0.297 N 
ATOM     10  H   PHE A   3     -52.873 -10.202 -29.655  0.00  0.00    +0.150 HD
BRANCH   7  11
ATOM     11  CA  VAL A   2     -53.491 -12.166 -28.189  0.00  0.00    +0.148 C 
BRANCH  11  14
ATOM     12  C   VAL A   1     -53.251 -11.434 -25.888  0.00  0.00    +0.238 C 
ATOM     13  O   VAL A   1     -52.332 -10.666 -26.144  0.00  0.00    -0.274 OA
ATOM     14  N   VAL A   2     -53.764 -12.283 -26.773  0.00  0.00    -0.297 N 
ATOM     15  H   VAL A   2     -54.378 -13.052 -26.438  0.00  0.00    +0.150 HD
BRANCH  12  16
ATOM     16  CA  VAL A   1     -53.877 -11.461 -24.510  0.00  0.00    +0.145 C 
BRANCH  16  17
ATOM     17  CB  VAL A   1     -55.106 -10.496 -24.509  0.00  0.00    +0.025 C 
ATOM     18  CG2 VAL A   1     -55.960 -10.716 -23.296  0.00  0.00    +0.002 C 
ATOM     19  CG1 VAL A   1     -54.676  -9.035 -24.621  0.00  0.00    +0.002 C 
ENDBRANCH  16  17
BRANCH  16  20
ATOM     20  N   VAL A   1     -52.910 -11.190 -23.428  0.00  0.00    -0.238 NA
ATOM     21  H   VAL A   1     -52.287 -10.359 -23.479  0.00  0.00    +0.142 HD
ENDBRANCH  16  20
ENDBRANCH  12  16
ENDBRANCH  11  14
BRANCH  11  22
ATOM     22  CB  VAL A   2     -53.652 -13.521 -28.934  0.00  0.00    +0.027 C 
ATOM     23  CG2 VAL A   2     -52.638 -14.549 -28.410  0.00  0.00    +0.002 C 
ATOM     24  CG1 VAL A   2     -53.522 -13.312 -30.471  0.00  0.00    +0.002 C 
ENDBRANCH  11  22
ENDBRANCH   7  11
ENDBRANCH   6   9
BRANCH   6  25
ATOM     25  CB  PHE A   3     -53.935  -7.885 -30.336  0.00  0.00    +0.055 C 
BRANCH  25  26
ATOM     26  CG  PHE A   3     -53.772  -7.238 -28.971  0.00  0.00    -0.020 A 
ATOM     27  CD2 PHE A   3     -52.668  -7.539 -28.155  0.00  0.00    -0.004 A 
ATOM     28  CE2 PHE A   3     -52.512  -6.943 -26.903  0.00  0.00    -0.000 A 
ATOM     29  CZ  PHE A   3     -53.477  -6.039 -26.439  0.00  0.00    -0.000 A 
ATOM     30  CE1 PHE A   3     -54.572  -5.740 -27.236  0.00  0.00    -0.000 A 
ATOM     31  CD1 PHE A   3     -54.717  -6.341 -28.501  0.00  0.00    -0.004 A 
ENDBRANCH  25  26
ENDBRANCH   6  25
ENDBRANCH   2   6
ENDBRANCH   1   3
BRANCH   1  32
ATOM     32  C   ASP A   4     -57.497 -10.415 -34.046  0.00  0.00    +0.241 C 
ATOM     33  O   ASP A   4     -58.680 -10.270 -33.799  0.00  0.00    -0.273 OA
ATOM     34  N   THR A   5     -56.965 -10.012 -35.195  0.00  0.00    -0.295 N 
ATOM     35  H   THR A   5     -55.933 -10.036 -35.318  0.00  0.00    +0.150 HD
BRANCH  34  36
ATOM     36  CA  THR A   5     -57.807  -9.538 -36.283  0.00  0.00    +0.176 C 
BRANCH  36  37
ATOM     37  C   THR A   5     -58.715 -10.624 -36.888  0.00  0.00    +0.243 C 
ATOM     38  N   GLY A   6     -58.490 -11.888 -36.536  0.00  0.00    -0.295 N 
ATOM     39  H   GLY A   6     -57.711 -12.102 -35.881  0.00  0.00    +0.150 HD
ATOM     40  O   THR A   5     -59.624 -10.311 -37.661  0.00  0.00    -0.273 OA
BRANCH  38  41
ATOM     41  CA  GLY A   6     -59.311 -12.980 -37.047  0.00  0.00    +0.176 C 
BRANCH  41  42
ATOM     42  C   GLY A   6     -60.528 -13.334 -36.203  0.00  0.00    +0.243 C 
ATOM     43  N   SER A   7     -60.804 -12.555 -35.157  0.00  0.00    -0.295 N 
ATOM     44  H   SER A   7     -60.124 -11.818 -34.882  0.00  0.00    +0.150 HD
ATOM     45  O   GLY A   6     -61.217 -14.301 -36.502  0.00  0.00    -0.273 OA
BRANCH  43  46
ATOM     46  CA  SER A   7     -62.033 -12.707 -34.387  0.00  0.00    +0.178 C 
BRANCH  46  47
ATOM     47  C   SER A   7     -62.408 -11.336 -33.841  0.00  0.00    +0.243 C 
ATOM     48  N   SER A   8     -63.561 -11.236 -33.186  0.00  0.00    -0.296 N 
ATOM     49  H   SER A   8     -64.062 -12.104 -32.908  0.00  0.00    +0.150 HD
ATOM     50  O   SER A   7     -61.646 -10.394 -33.999  0.00  0.00    -0.273 OA
BRANCH  48  51
ATOM     51  CA  SER A   8     -64.144  -9.937 -32.846  0.00  0.00    +0.166 C 
BRANCH  51  52
ATOM     52  CB  SER A   8     -64.599  -9.779 -31.397  0.00  0.00    +0.229 C 
ATOM     53  OG  SER A   8     -65.104  -8.718 -31.020  0.00  0.00    -0.286 OA
ENDBRANCH  51  52
BRANCH  51  54
ATOM     54  C   SER A   8     -65.317  -9.658 -33.779  0.00  0.00    +0.165 C 
BRANCH  54  55
ATOM     55  O   SER A   8     -64.925  -9.721 -35.139  0.00  0.00    -0.380 OA
ATOM     56  H   SER A   8     -65.708  -9.536 -35.716  0.00  0.00    +0.211 HD
ENDBRANCH  54  55
ENDBRANCH  51  54
ENDBRANCH  48  51
ENDBRANCH  46  47
BRANCH  46  57
ATOM     57  CB  SER A   7     -61.818 -13.693 -33.252  0.00  0.00    +0.166 C 
BRANCH  57  58
ATOM     58  OG  SER A   7     -60.767 -13.223 -32.422  0.00  0.00    -0.380 OA
ATOM     59  H   SER A   7     -59.937 -13.143 -32.956  0.00  0.00    +0.211 HD
ENDBRANCH  57  58
ENDBRANCH  46  57
ENDBRANCH  43  46
ENDBRANCH  41  42
ENDBRANCH  38  41
ENDBRANCH  36  37
BRANCH  36  60
ATOM     60  CB  THR A   5     -56.977  -8.897 -37.407  0.00  0.00    +0.137 C 
ATOM     61  CG2 THR A   5     -56.317  -7.628 -36.915  0.00  0.00    +0.034 C 
BRANCH  60  62
ATOM     62  OG1 THR A   5     -55.999  -9.838 -37.872  0.00  0.00    -0.382 OA
ATOM     63  HG1 THR A   5     -55.464  -9.426 -38.596  0.00  0.00    +0.210 HD
ENDBRANCH  60  62
ENDBRANCH  36  60
ENDBRANCH  34  36
ENDBRANCH   1  32
BRANCH   1  64
ATOM     64  CB  ASP A   4     -57.207 -12.283 -32.354  0.00  0.00    +0.143 C 
BRANCH  64  65
ATOM     65  CG  ASP A   4     -57.673 -13.343 -33.316  0.00  0.00    +0.367 C 
ATOM     66  OD2 ASP A   4     -58.461 -14.205 -32.878  0.00  0.00    -0.246 OA
ATOM     67  OD1 ASP A   4     -57.275 -13.329 -34.499  0.00  0.00    -0.246 OA
ENDBRANCH  64  65
ENDBRANCH   1  64
TORSDOF 28
REMARK  Name = ../refined-set-2016/2il2/2il2_pocket.pdb
REMARK  282 active torsions:
REMARK  status: ('A' for Active; 'I' for Inactive)
REMARK    1  A    between atoms: _1  and  _3
REMARK    2  A    between atoms: _3  and  _4
REMARK    3  A    between atoms: _3  and  _6
REMARK    4  A    between atoms: _6  and  _7
REMARK    5  A    between atoms: _10  and  _12
REMARK    6  A    between atoms: _12  and  _13
REMARK    7  A    between atoms: _12  and  _15
REMARK    8  A    between atoms: _15  and  _16
REMARK    9  A    between atoms: _19  and  _21
REMARK   10  A    between atoms: _21  and  _22
REMARK   11  A    between atoms: _21  and  _24
REMARK   12  A    between atoms: _24  and  _25
REMARK   13  A    between atoms: _30  and  _31
REMARK   14  A    between atoms: _33  and  _35
REMARK   15  A    between atoms: _35  and  _36
REMARK   16  A    between atoms: _35  and  _38
REMARK   17  A    between atoms: _38  and  _39
REMARK   18  A    between atoms: _42  and  _44
REMARK   19  A    between atoms: _44  and  _45
REMARK   20  A    between atoms: _44  and  _47
REMARK   21  A    between atoms: _47  and  _48
REMARK   22  A    between atoms: _51  and  _53
REMARK   23  A    between atoms: _53  and  _54
REMARK   24  A    between atoms: _53  and  _56
REMARK   25  A    between atoms: _56  and  _57
REMARK   26  A    between atoms: _57  and  _58
REMARK   27  A    between atoms: _63  and  _65
REMARK   28  A    between atoms: _65  and  _66
REMARK   29  A    between atoms: _65  and  _68
REMARK   30  A    between atoms: _68  and  _69
REMARK   31  A    between atoms: _74  and  _75
REMARK   32  A    between atoms: _77  and  _79
REMARK   33  A    between atoms: _79  and  _80
REMARK   34  A    between atoms: _79  and  _82
REMARK   35  A    between atoms: _82  and  _83
REMARK   36  A    between atoms: _88  and  _89
REMARK   37  A    between atoms: _91  and  _93
REMARK   38  A    between atoms: _93  and  _94
REMARK   39  A    between atoms: _93  and  _96
REMARK   40  A    between atoms: _99  and  _101
REMARK   41  A    between atoms: _101  and  _102
REMARK   42  A    between atoms: _101  and  _104
REMARK   43  A    between atoms: _107  and  _109
REMARK   44  A    between atoms: _109  and  _110
REMARK   45  A    between atoms: _109  and  _112
REMARK   46  A    between atoms: _112  and  _113
REMARK   47  A    between atoms: _119  and  _121
REMARK   48  A    between atoms: _121  and  _122
REMARK   49  A    between atoms: _121  and  _124
REMARK   50  A    between atoms: _124  and  _125
REMARK   51  A    between atoms: _128  and  _130
REMARK   52  A    between atoms: _130  and  _131
REMARK   53  A    between atoms: _130  and  _133
REMARK   54  A    between atoms: _133  and  _134
REMARK   55  A    between atoms: _137  and  _139
REMARK   56  A    between atoms: _139  and  _140
REMARK   57  A    between atoms: _142  and  _144
REMARK   58  A    between atoms: _144  and  _145
REMARK   59  A    between atoms: _144  and  _147
REMARK   60  A    between atoms: _147  and  _148
REMARK   61  A    between atoms: _150  and  _152
REMARK   62  A    between atoms: _152  and  _153
REMARK   63  A    between atoms: _152  and  _155
REMARK   64  A    between atoms: _155  and  _156
REMARK   65  A    between atoms: _158  and  _160
REMARK   66  A    between atoms: _160  and  _161
REMARK   67  A    between atoms: _160  and  _163
REMARK   68  A    between atoms: _163  and  _164
REMARK   69  A    between atoms: _174  and  _176
REMARK   70  A    between atoms: _176  and  _177
REMARK   71  A    between atoms: _176  and  _179
REMARK   72  A    between atoms: _179  and  _180
REMARK   73  A    between atoms: _180  and  _181
REMARK   74  A    between atoms: _181  and  _182
REMARK   75  A    between atoms: _191  and  _193
REMARK   76  A    between atoms: _193  and  _194
REMARK   77  A    between atoms: _193  and  _196
REMARK   78  A    between atoms: _196  and  _197
REMARK   79  A    between atoms: _202  and  _203
REMARK   80  A    between atoms: _205  and  _207
REMARK   81  A    between atoms: _207  and  _208
REMARK   82  A    between atoms: _207  and  _210
REMARK   83  A    between atoms: _210  and  _211
REMARK   84  A    between atoms: _213  and  _215
REMARK   85  A    between atoms: _215  and  _216
REMARK   86  A    between atoms: _215  and  _218
REMARK   87  A    between atoms: _218  and  _219
REMARK   88  A    between atoms: _222  and  _224
REMARK   89  A    between atoms: _224  and  _225
REMARK   90  A    between atoms: _227  and  _229
REMARK   91  A    between atoms: _229  and  _230
REMARK   92  A    between atoms: _229  and  _232
REMARK   93  A    between atoms: _232  and  _233
REMARK   94  A    between atoms: _236  and  _238
REMARK   95  A    between atoms: _238  and  _239
REMARK   96  A    between atoms: _238  and  _241
REMARK   97  A    between atoms: _244  and  _246
REMARK   98  A    between atoms: _246  and  _247
REMARK   99  A    between atoms: _250  and  _252
REMARK  100  A    between atoms: _252  and  _253
REMARK  101  A    between atoms: _252  and  _255
REMARK  102  A    between atoms: _255  and  _256
REMARK  103  A    between atoms: _260  and  _261
REMARK  104  A    between atoms: _266  and  _268
REMARK  105  A    between atoms: _268  and  _269
REMARK  106  A    between atoms: _268  and  _271
REMARK  107  A    between atoms: _271  and  _272
REMARK  108  A    between atoms: _278  and  _280
REMARK  109  A    between atoms: _280  and  _281
REMARK  110  A    between atoms: _280  and  _283
REMARK  111  A    between atoms: _283  and  _284
REMARK  112  A    between atoms: _284  and  _285
REMARK  113  A    between atoms: _287  and  _289
REMARK  114  A    between atoms: _289  and  _290
REMARK  115  A    between atoms: _289  and  _292
REMARK  116  A    between atoms: _292  and  _293
REMARK  117  A    between atoms: _296  and  _298
REMARK  118  A    between atoms: _298  and  _299
REMARK  119  A    between atoms: _302  and  _304
REMARK  120  A    between atoms: _304  and  _305
REMARK  121  A    between atoms: _304  and  _307
REMARK  122  A    between atoms: _307  and  _308
REMARK  123  A    between atoms: _308  and  _309
REMARK  124  A    between atoms: _312  and  _314
REMARK  125  A    between atoms: _314  and  _315
REMARK  126  A    between atoms: _314  and  _317
REMARK  127  A    between atoms: _317  and  _318
REMARK  128  A    between atoms: _324  and  _326
REMARK  129  A    between atoms: _326  and  _327
REMARK  130  A    between atoms: _329  and  _331
REMARK  131  A    between atoms: _331  and  _332
REMARK  132  A    between atoms: _331  and  _334
REMARK  133  A    between atoms: _337  and  _339
REMARK  134  A    between atoms: _339  and  _340
REMARK  135  A    between atoms: _339  and  _342
REMARK  136  A    between atoms: _345  and  _347
REMARK  137  A    between atoms: _347  and  _348
REMARK  138  A    between atoms: _350  and  _352
REMARK  139  A    between atoms: _352  and  _353
REMARK  140  A    between atoms: _352  and  _355
REMARK  141  A    between atoms: _355  and  _356
REMARK  142  A    between atoms: _356  and  _357
REMARK  143  A    between atoms: _359  and  _361
REMARK  144  A    between atoms: _361  and  _362
REMARK  145  A    between atoms: _361  and  _364
REMARK  146  A    between atoms: _364  and  _365
REMARK  147  A    between atoms: _371  and  _373
REMARK  148  A    between atoms: _373  and  _374
REMARK  149  A    between atoms: _373  and  _376
REMARK  150  A    between atoms: _376  and  _377
REMARK  151  A    between atoms: _382  and  _383
REMARK  152  A    between atoms: _385  and  _387
REMARK  153  A    between atoms: _387  and  _388
REMARK  154  A    between atoms: _387  and  _390
REMARK  155  A    between atoms: _390  and  _391
REMARK  156  A    between atoms: _394  and  _396
REMARK  157  A    between atoms: _396  and  _397
REMARK  158  A    between atoms: _396  and  _399
REMARK  159  A    between atoms: _402  and  _404
REMARK  160  A    between atoms: _404  and  _405
REMARK  161  A    between atoms: _404  and  _407
REMARK  162  A    between atoms: _407  and  _408
REMARK  163  A    between atoms: _411  and  _413
REMARK  164  A    between atoms: _413  and  _414
REMARK  165  A    between atoms: _413  and  _416
REMARK  166  A    between atoms: _416  and  _417
REMARK  167  A    between atoms: _420  and  _422
REMARK  168  A    between atoms: _422  and  _423
REMARK  169  A    between atoms: _425  and  _427
REMARK  170  A    between atoms: _427  and  _428
REMARK  171  A    between atoms: _431  and  _433
REMARK  172  A    between atoms: _433  and  _434
REMARK  173  A    between atoms: _433  and  _436
REMARK  174  A    between atoms: _436  and  _437
REMARK  175  A    between atoms: _439  and  _441
REMARK  176  A    between atoms: _441  and  _442
REMARK  177  A    between atoms: _441  and  _444
REMARK  178  A    between atoms: _444  and  _445
REMARK  179  A    between atoms: _450  and  _451
REMARK  180  A    between atoms: _453  and  _455
REMARK  181  A    between atoms: _455  and  _456
REMARK  182  A    between atoms: _455  and  _458
REMARK  183  A    between atoms: _458  and  _459
REMARK  184  A    between atoms: _462  and  _464
REMARK  185  A    between atoms: _464  and  _465
REMARK  186  A    between atoms: _464  and  _467
REMARK  187  A    between atoms: _467  and  _468
REMARK  188  A    between atoms: _470  and  _472
REMARK  189  A    between atoms: _472  and  _473
REMARK  190  A    between atoms: _475  and  _477
REMARK  191  A    between atoms: _477  and  _478
REMARK  192  A    between atoms: _477  and  _480
REMARK  193  A    between atoms: _480  and  _481
REMARK  194  A    between atoms: _481  and  _482
REMARK  195  A    between atoms: _482  and  _483
REMARK  196  A    between atoms: _483  and  _484
REMARK  197  A    between atoms: _488  and  _490
REMARK  198  A    between atoms: _490  and  _491
REMARK  199  A    between atoms: _490  and  _493
REMARK  200  A    between atoms: _493  and  _494
REMARK  201  A    between atoms: _500  and  _502
REMARK  202  A    between atoms: _502  and  _503
REMARK  203  A    between atoms: _502  and  _505
REMARK  204  A    between atoms: _505  and  _506
REMARK  205  A    between atoms: _509  and  _511
REMARK  206  A    between atoms: _511  and  _512
REMARK  207  A    between atoms: _511  and  _514
REMARK  208  A    between atoms: _514  and  _515
REMARK  209  A    between atoms: _520  and  _521
REMARK  210  A    between atoms: _523  and  _525
REMARK  211  A    between atoms: _525  and  _526
REMARK  212  A    between atoms: _529  and  _531
REMARK  213  A    between atoms: _531  and  _532
REMARK  214  A    between atoms: _531  and  _534
REMARK  215  A    between atoms: _534  and  _535
REMARK  216  A    between atoms: _538  and  _540
REMARK  217  A    between atoms: _540  and  _541
REMARK  218  A    between atoms: _540  and  _543
REMARK  219  A    between atoms: _543  and  _544
REMARK  220  A    between atoms: _549  and  _551
REMARK  221  A    between atoms: _551  and  _552
REMARK  222  A    between atoms: _555  and  _557
REMARK  223  A    between atoms: _557  and  _558
REMARK  224  A    between atoms: _557  and  _560
REMARK  225  A    between atoms: _560  and  _561
REMARK  226  A    between atoms: _561  and  _562
REMARK  227  A    between atoms: _564  and  _566
REMARK  228  A    between atoms: _566  and  _567
REMARK  229  A    between atoms: _566  and  _569
REMARK  230  A    between atoms: _569  and  _570
REMARK  231  A    between atoms: _573  and  _575
REMARK  232  A    between atoms: _575  and  _576
REMARK  233  A    between atoms: _575  and  _578
REMARK  234  A    between atoms: _578  and  _579
REMARK  235  A    between atoms: _582  and  _584
REMARK  236  A    between atoms: _584  and  _585
REMARK  237  A    between atoms: _588  and  _590
REMARK  238  A    between atoms: _590  and  _591
REMARK  239  A    between atoms: _590  and  _593
REMARK  240  A    between atoms: _593  and  _594
REMARK  241  A    between atoms: _597  and  _599
REMARK  242  A    between atoms: _599  and  _600
REMARK  243  A    between atoms: _602  and  _604
REMARK  244  A    between atoms: _604  and  _605
REMARK  245  A    between atoms: _608  and  _610
REMARK  246  A    between atoms: _610  and  _611
REMARK  247  A    between atoms: _610  and  _613
REMARK  248  A    between atoms: _613  and  _614
REMARK  249  A    between atoms: _617  and  _619
REMARK  250  A    between atoms: _619  and  _620
REMARK  251  A    between atoms: _619  and  _622
REMARK  252  A    between atoms: _622  and  _623
REMARK  253  A    between atoms: _626  and  _628
REMARK  254  A    between atoms: _628  and  _629
REMARK  255  A    between atoms: _628  and  _631
REMARK  256  A    between atoms: _631  and  _632
REMARK  257  A    between atoms: _632  and  _633
REMARK  258  A    between atoms: _633  and  _634
REMARK  259  A    between atoms: _643  and  _645
REMARK  260  A    between atoms: _645  and  _646
REMARK  261  A    between atoms: _645  and  _648
REMARK  262  A    between atoms: _648  and  _649
REMARK  263  A    between atoms: _649  and  _650
REMARK  264  A    between atoms: _650  and  _651
REMARK  265  A    between atoms: _651  and  _652
REMARK  266  A    between atoms: _656  and  _658
REMARK  267  A    between atoms: _658  and  _659
REMARK  268  A    between atoms: _658  and  _661
REMARK  269  A    between atoms: _661  and  _662
REMARK  270  A    between atoms: _667  and  _669
REMARK  271  A    between atoms: _669  and  _670
REMARK  272  A    between atoms: _669  and  _672
REMARK  273  A    between atoms: _672  and  _673
REMARK  274  A    between atoms: _673  and  _674
REMARK  275  A    between atoms: _677  and  _679
REMARK  276  A    between atoms: _679  and  _680
REMARK  277  A    between atoms: _679  and  _682
REMARK  278  A    between atoms: _682  and  _683
REMARK  279  A    between atoms: _686  and  _688
REMARK  280  A    between atoms: _688  and  _689
REMARK  281  A    between atoms: _688  and  _691
REMARK  282  A    between atoms: _691  and  _692
REMARK                            x       y       z     vdW  Elec       q    Type
REMARK                         _______ _______ _______ _____ _____    ______ ____
ROOT
ATOM      1  CG  TRP A   1     -62.184 -15.067 -24.829  0.00  0.00    -0.002 A 
ATOM      2  CD2 TRP A   1     -61.249 -16.019 -24.303  0.00  0.00    +0.013 A 
ATOM      3  CE3 TRP A   1     -60.882 -16.411 -23.007  0.00  0.00    +0.001 A 
ATOM      4  CZ3 TRP A   1     -59.908 -17.382 -22.856  0.00  0.00    +0.000 A 
ATOM      5  CH2 TRP A   1     -59.285 -17.959 -23.965  0.00  0.00    +0.001 A 
ATOM      6  CZ2 TRP A   1     -59.615 -17.592 -25.243  0.00  0.00    +0.017 A 
ATOM      7  CE2 TRP A   1     -60.608 -16.627 -25.400  0.00  0.00    +0.056 A 
ATOM      8  NE1 TRP A   1     -61.121 -16.067 -26.541  0.00  0.00    -0.352 N 
ATOM      9  HE1 TRP A   1     -60.840 -16.311 -27.512  0.00  0.00    +0.166 HD
ATOM     10  CD1 TRP A   1     -62.069 -15.129 -26.196  0.00  0.00    +0.068 A 
ENDROOT
BRANCH   1  11
ATOM     11  CB  TRP A   1     -63.105 -14.178 -24.044  0.00  0.00    +0.053 C 
BRANCH  11  12
ATOM     12  CA  TRP A   1     -62.481 -12.856 -23.547  0.00  0.00    +0.137 C 
BRANCH  12  13
ATOM     13  N   TRP A   1     -62.229 -11.918 -24.650  0.00  0.00    -0.239 NA
ATOM     14  H   TRP A   1     -61.299 -11.910 -25.116  0.00  0.00    +0.142 HD
ENDBRANCH  12  13
BRANCH  12  15
ATOM     15  C   TRP A   1     -61.236 -13.141 -22.708  0.00  0.00    +0.224 C 
ATOM     16  O   TRP A   1     -60.127 -13.060 -23.200  0.00  0.00    -0.287 OA
ENDBRANCH  12  15
ENDBRANCH  11  12
ENDBRANCH   1  11
TORSDOF 4
REMARK  Name = ../refined-set-2016/2il2/2il2_pocket.pdb
REMARK  282 active torsions:
REMARK  status: ('A' for Active; 'I' for Inactive)
REMARK    1  A    between atoms: _1  and  _3
REMARK    2  A    between atoms: _3  and  _4
REMARK    3  A    between atoms: _3  and  _6
REMARK    4  A    between atoms: _6  and  _7
REMARK    5  A    between atoms: _10  and  _12
REMARK    6  A    between atoms: _12  and  _13
REMARK    7  A    between atoms: _12  and  _15
REMARK    8  A    between atoms: _15  and  _16
REMARK    9  A    between atoms: _19  and  _21
REMARK   10  A    between atoms: _21  and  _22
REMARK   11  A    between atoms: _21  and  _24
REMARK   12  A    between atoms: _24  and  _25
REMARK   13  A    between atoms: _30  and  _31
REMARK   14  A    between atoms: _33  and  _35
REMARK   15  A    between atoms: _35  and  _36
REMARK   16  A    between atoms: _35  and  _38
REMARK   17  A    between atoms: _38  and  _39
REMARK   18  A    between atoms: _42  and  _44
REMARK   19  A    between atoms: _44  and  _45
REMARK   20  A    between atoms: _44  and  _47
REMARK   21  A    between atoms: _47  and  _48
REMARK   22  A    between atoms: _51  and  _53
REMARK   23  A    between atoms: _53  and  _54
REMARK   24  A    between atoms: _53  and  _56
REMARK   25  A    between atoms: _56  and  _57
REMARK   26  A    between atoms: _57  and  _58
REMARK   27  A    between atoms: _63  and  _65
REMARK   28  A    between atoms: _65  and  _66
REMARK   29  A    between atoms: _65  and  _68
REMARK   30  A    between atoms: _68  and  _69
REMARK   31  A    between atoms: _74  and  _75
REMARK   32  A    between atoms: _77  and  _79
REMARK   33  A    between atoms: _79  and  _80
REMARK   34  A    between atoms: _79  and  _82
REMARK   35  A    between atoms: _82  and  _83
REMARK   36  A    between atoms: _88  and  _89
REMARK   37  A    between atoms: _91  and  _93
REMARK   38  A    between atoms: _93  and  _94
REMARK   39  A    between atoms: _93  and  _96
REMARK   40  A    between atoms: _99  and  _101
REMARK   41  A    between atoms: _101  and  _102
REMARK   42  A    between atoms: _101  and  _104
REMARK   43  A    between atoms: _107  and  _109
REMARK   44  A    between atoms: _109  and  _110
REMARK   45  A    between atoms: _109  and  _112
REMARK   46  A    between atoms: _112  and  _113
REMARK   47  A    between atoms: _119  and  _121
REMARK   48  A    between atoms: _121  and  _122
REMARK   49  A    between atoms: _121  and  _124
REMARK   50  A    between atoms: _124  and  _125
REMARK   51  A    between atoms: _128  and  _130
REMARK   52  A    between atoms: _130  and  _131
REMARK   53  A    between atoms: _130  and  _133
REMARK   54  A    between atoms: _133  and  _134
REMARK   55  A    between atoms: _137  and  _139
REMARK   56  A    between atoms: _139  and  _140
REMARK   57  A    between atoms: _142  and  _144
REMARK   58  A    between atoms: _144  and  _145
REMARK   59  A    between atoms: _144  and  _147
REMARK   60  A    between atoms: _147  and  _148
REMARK   61  A    between atoms: _150  and  _152
REMARK   62  A    between atoms: _152  and  _153
REMARK   63  A    between atoms: _152  and  _155
REMARK   64  A    between atoms: _155  and  _156
REMARK   65  A    between atoms: _158  and  _160
REMARK   66  A    between atoms: _160  and  _161
REMARK   67  A    between atoms: _160  and  _163
REMARK   68  A    between atoms: _163  and  _164
REMARK   69  A    between atoms: _174  and  _176
REMARK   70  A    between atoms: _176  and  _177
REMARK   71  A    between atoms: _176  and  _179
REMARK   72  A    between atoms: _179  and  _180
REMARK   73  A    between atoms: _180  and  _181
REMARK   74  A    between atoms: _181  and  _182
REMARK   75  A    between atoms: _191  and  _193
REMARK   76  A    between atoms: _193  and  _194
REMARK   77  A    between atoms: _193  and  _196
REMARK   78  A    between atoms: _196  and  _197
REMARK   79  A    between atoms: _202  and  _203
REMARK   80  A    between atoms: _205  and  _207
REMARK   81  A    between atoms: _207  and  _208
REMARK   82  A    between atoms: _207  and  _210
REMARK   83  A    between atoms: _210  and  _211
REMARK   84  A    between atoms: _213  and  _215
REMARK   85  A    between atoms: _215  and  _216
REMARK   86  A    between atoms: _215  and  _218
REMARK   87  A    between atoms: _218  and  _219
REMARK   88  A    between atoms: _222  and  _224
REMARK   89  A    between atoms: _224  and  _225
REMARK   90  A    between atoms: _227  and  _229
REMARK   91  A    between atoms: _229  and  _230
REMARK   92  A    between atoms: _229  and  _232
REMARK   93  A    between atoms: _232  and  _233
REMARK   94  A    between atoms: _236  and  _238
REMARK   95  A    between atoms: _238  and  _239
REMARK   96  A    between atoms: _238  and  _241
REMARK   97  A    between atoms: _244  and  _246
REMARK   98  A    between atoms: _246  and  _247
REMARK   99  A    between atoms: _250  and  _252
REMARK  100  A    between atoms: _252  and  _253
REMARK  101  A    between atoms: _252  and  _255
REMARK  102  A    between atoms: _255  and  _256
REMARK  103  A    between atoms: _260  and  _261
REMARK  104  A    between atoms: _266  and  _268
REMARK  105  A    between atoms: _268  and  _269
REMARK  106  A    between atoms: _268  and  _271
REMARK  107  A    between atoms: _271  and  _272
REMARK  108  A    between atoms: _278  and  _280
REMARK  109  A    between atoms: _280  and  _281
REMARK  110  A    between atoms: _280  and  _283
REMARK  111  A    between atoms: _283  and  _284
REMARK  112  A    between atoms: _284  and  _285
REMARK  113  A    between atoms: _287  and  _289
REMARK  114  A    between atoms: _289  and  _290
REMARK  115  A    between atoms: _289  and  _292
REMARK  116  A    between atoms: _292  and  _293
REMARK  117  A    between atoms: _296  and  _298
REMARK  118  A    between atoms: _298  and  _299
REMARK  119  A    between atoms: _302  and  _304
REMARK  120  A    between atoms: _304  and  _305
REMARK  121  A    between atoms: _304  and  _307
REMARK  122  A    between atoms: _307  and  _308
REMARK  123  A    between atoms: _308  and  _309
REMARK  124  A    between atoms: _312  and  _314
REMARK  125  A    between atoms: _314  and  _315
REMARK  126  A    between atoms: _314  and  _317
REMARK  127  A    between atoms: _317  and  _318
REMARK  128  A    between atoms: _324  and  _326
REMARK  129  A    between atoms: _326  and  _327
REMARK  130  A    between atoms: _329  and  _331
REMARK  131  A    between atoms: _331  and  _332
REMARK  132  A    between atoms: _331  and  _334
REMARK  133  A    between atoms: _337  and  _339
REMARK  134  A    between atoms: _339  and  _340
REMARK  135  A    between atoms: _339  and  _342
REMARK  136  A    between atoms: _345  and  _347
REMARK  137  A    between atoms: _347  and  _348
REMARK  138  A    between atoms: _350  and  _352
REMARK  139  A    between atoms: _352  and  _353
REMARK  140  A    between atoms: _352  and  _355
REMARK  141  A    between atoms: _355  and  _356
REMARK  142  A    between atoms: _356  and  _357
REMARK  143  A    between atoms: _359  and  _361
REMARK  144  A    between atoms: _361  and  _362
REMARK  145  A    between atoms: _361  and  _364
REMARK  146  A    between atoms: _364  and  _365
REMARK  147  A    between atoms: _371  and  _373
REMARK  148  A    between atoms: _373  and  _374
REMARK  149  A    between atoms: _373  and  _376
REMARK  150  A    between atoms: _376  and  _377
REMARK  151  A    between atoms: _382  and  _383
REMARK  152  A    between atoms: _385  and  _387
REMARK  153  A    between atoms: _387  and  _388
REMARK  154  A    between atoms: _387  and  _390
REMARK  155  A    between atoms: _390  and  _391
REMARK  156  A    between atoms: _394  and  _396
REMARK  157  A    between atoms: _396  and  _397
REMARK  158  A    between atoms: _396  and  _399
REMARK  159  A    between atoms: _402  and  _404
REMARK  160  A    between atoms: _404  and  _405
REMARK  161  A    between atoms: _404  and  _407
REMARK  162  A    between atoms: _407  and  _408
REMARK  163  A    between atoms: _411  and  _413
REMARK  164  A    between atoms: _413  and  _414
REMARK  165  A    between atoms: _413  and  _416
REMARK  166  A    between atoms: _416  and  _417
REMARK  167  A    between atoms: _420  and  _422
REMARK  168  A    between atoms: _422  and  _423
REMARK  169  A    between atoms: _425  and  _427
REMARK  170  A    between atoms: _427  and  _428
REMARK  171  A    between atoms: _431  and  _433
REMARK  172  A    between atoms: _433  and  _434
REMARK  173  A    between atoms: _433  and  _436
REMARK  174  A    between atoms: _436  and  _437
REMARK  175  A    between atoms: _439  and  _441
REMARK  176  A    between atoms: _441  and  _442
REMARK  177  A    between atoms: _441  and  _444
REMARK  178  A    between atoms: _444  and  _445
REMARK  179  A    between atoms: _450  and  _451
REMARK  180  A    between atoms: _453  and  _455
REMARK  181  A    between atoms: _455  and  _456
REMARK  182  A    between atoms: _455  and  _458
REMARK  183  A    between atoms: _458  and  _459
REMARK  184  A    between atoms: _462  and  _464
REMARK  185  A    between atoms: _464  and  _465
REMARK  186  A    between atoms: _464  and  _467
REMARK  187  A    between atoms: _467  and  _468
REMARK  188  A    between atoms: _470  and  _472
REMARK  189  A    between atoms: _472  and  _473
REMARK  190  A    between atoms: _475  and  _477
REMARK  191  A    between atoms: _477  and  _478
REMARK  192  A    between atoms: _477  and  _480
REMARK  193  A    between atoms: _480  and  _481
REMARK  194  A    between atoms: _481  and  _482
REMARK  195  A    between atoms: _482  and  _483
REMARK  196  A    between atoms: _483  and  _484
REMARK  197  A    between atoms: _488  and  _490
REMARK  198  A    between atoms: _490  and  _491
REMARK  199  A    between atoms: _490  and  _493
REMARK  200  A    between atoms: _493  and  _494
REMARK  201  A    between atoms: _500  and  _502
REMARK  202  A    between atoms: _502  and  _503
REMARK  203  A    between atoms: _502  and  _505
REMARK  204  A    between atoms: _505  and  _506
REMARK  205  A    between atoms: _509  and  _511
REMARK  206  A    between atoms: _511  and  _512
REMARK  207  A    between atoms: _511  and  _514
REMARK  208  A    between atoms: _514  and  _515
REMARK  209  A    between atoms: _520  and  _521
REMARK  210  A    between atoms: _523  and  _525
REMARK  211  A    between atoms: _525  and  _526
REMARK  212  A    between atoms: _529  and  _531
REMARK  213  A    between atoms: _531  and  _532
REMARK  214  A    between atoms: _531  and  _534
REMARK  215  A    between atoms: _534  and  _535
REMARK  216  A    between atoms: _538  and  _540
REMARK  217  A    between atoms: _540  and  _541
REMARK  218  A    between atoms: _540  and  _543
REMARK  219  A    between atoms: _543  and  _544
REMARK  220  A    between atoms: _549  and  _551
REMARK  221  A    between atoms: _551  and  _552
REMARK  222  A    between atoms: _555  and  _557
REMARK  223  A    between atoms: _557  and  _558
REMARK  224  A    between atoms: _557  and  _560
REMARK  225  A    between atoms: _560  and  _561
REMARK  226  A    between atoms: _561  and  _562
REMARK  227  A    between atoms: _564  and  _566
REMARK  228  A    between atoms: _566  and  _567
REMARK  229  A    between atoms: _566  and  _569
REMARK  230  A    between atoms: _569  and  _570
REMARK  231  A    between atoms: _573  and  _575
REMARK  232  A    between atoms: _575  and  _576
REMARK  233  A    between atoms: _575  and  _578
REMARK  234  A    between atoms: _578  and  _579
REMARK  235  A    between atoms: _582  and  _584
REMARK  236  A    between atoms: _584  and  _585
REMARK  237  A    between atoms: _588  and  _590
REMARK  238  A    between atoms: _590  and  _591
REMARK  239  A    between atoms: _590  and  _593
REMARK  240  A    between atoms: _593  and  _594
REMARK  241  A    between atoms: _597  and  _599
REMARK  242  A    between atoms: _599  and  _600
REMARK  243  A    between atoms: _602  and  _604
REMARK  244  A    between atoms: _604  and  _605
REMARK  245  A    between atoms: _608  and  _610
REMARK  246  A    between atoms: _610  and  _611
REMARK  247  A    between atoms: _610  and  _613
REMARK  248  A    between atoms: _613  and  _614
REMARK  249  A    between atoms: _617  and  _619
REMARK  250  A    between atoms: _619  and  _620
REMARK  251  A    between atoms: _619  and  _622
REMARK  252  A    between atoms: _622  and  _623
REMARK  253  A    between atoms: _626  and  _628
REMARK  254  A    between atoms: _628  and  _629
REMARK  255  A    between atoms: _628  and  _631
REMARK  256  A    between atoms: _631  and  _632
REMARK  257  A    between atoms: _632  and  _633
REMARK  258  A    between atoms: _633  and  _634
REMARK  259  A    between atoms: _643  and  _645
REMARK  260  A    between atoms: _645  and  _646
REMARK  261  A    between atoms: _645  and  _648
REMARK  262  A    between atoms: _648  and  _649
REMARK  263  A    between atoms: _649  and  _650
REMARK  264  A    between atoms: _650  and  _651
REMARK  265  A    between atoms: _651  and  _652
REMARK  266  A    between atoms: _656  and  _658
REMARK  267  A    between atoms: _658  and  _659
REMARK  268  A    between atoms: _658  and  _661
REMARK  269  A    between atoms: _661  and  _662
REMARK  270  A    between atoms: _667  and  _669
REMARK  271  A    between atoms: _669  and  _670
REMARK  272  A    between atoms: _669  and  _672
REMARK  273  A    between atoms: _672  and  _673
REMARK  274  A    between atoms: _673  and  _674
REMARK  275  A    between atoms: _677  and  _679
REMARK  276  A    between atoms: _679  and  _680
REMARK  277  A    between atoms: _679  and  _682
REMARK  278  A    between atoms: _682  and  _683
REMARK  279  A    between atoms: _686  and  _688
REMARK  280  A    between atoms: _688  and  _689
REMARK  281  A    between atoms: _688  and  _691
REMARK  282  A    between atoms: _691  and  _692
REMARK                            x       y       z     vdW  Elec       q    Type
REMARK                         _______ _______ _______ _____ _____    ______ ____
ROOT
ATOM      1  CA  SER A   3     -59.972 -23.049 -36.057  0.00  0.00    +0.178 C 
ENDROOT
BRANCH   1   2
ATOM      2  C   SER A   3     -59.175 -24.156 -35.368  0.00  0.00    +0.243 C 
ATOM      3  N   THR A   4     -58.455 -23.810 -34.294  0.00  0.00    -0.295 N 
ATOM      4  H   THR A   4     -58.438 -22.813 -33.998  0.00  0.00    +0.150 HD
ATOM      5  O   SER A   3     -59.226 -25.308 -35.803  0.00  0.00    -0.273 OA
BRANCH   3   6
ATOM      6  CA  THR A   4     -57.685 -24.799 -33.517  0.00  0.00    +0.176 C 
BRANCH   6   7
ATOM      7  C   THR A   4     -58.292 -25.192 -32.143  0.00  0.00    +0.243 C 
ATOM      8  O   THR A   4     -57.907 -26.245 -31.585  0.00  0.00    -0.273 OA
ATOM      9  N   GLY A   5     -59.234 -24.393 -31.616  0.00  0.00    -0.295 N 
ATOM     10  H   GLY A   5     -59.507 -23.530 -32.128  0.00  0.00    +0.150 HD
BRANCH   9  11
ATOM     11  CA  GLY A   5     -59.898 -24.705 -30.324  0.00  0.00    +0.176 C 
BRANCH  11  12
ATOM     12  C   GLY A   5     -61.156 -23.906 -29.974  0.00  0.00    +0.243 C 
ATOM     13  N   THR A   6     -61.875 -24.341 -28.931  0.00  0.00    -0.295 N 
ATOM     14  H   THR A   6     -61.493 -25.116 -28.352  0.00  0.00    +0.150 HD
ATOM     15  O   GLY A   5     -61.460 -22.907 -30.618  0.00  0.00    -0.273 OA
BRANCH  13  16
ATOM     16  CA  THR A   6     -63.188 -23.768 -28.567  0.00  0.00    +0.176 C 
BRANCH  16  17
ATOM     17  C   THR A   6     -63.303 -23.415 -27.081  0.00  0.00    +0.243 C 
ATOM     18  O   THR A   6     -62.925 -24.209 -26.224  0.00  0.00    -0.273 OA
ATOM     19  N   VAL A   7     -63.846 -22.229 -26.796  0.00  0.00    -0.298 N 
ATOM     20  H   VAL A   7     -64.103 -21.599 -27.582  0.00  0.00    +0.150 HD
BRANCH  19  21
ATOM     21  CA  VAL A   7     -64.095 -21.776 -25.428  0.00  0.00    +0.137 C 
BRANCH  21  22
ATOM     22  CB  VAL A   7     -63.168 -20.592 -25.004  0.00  0.00    +0.026 C 
ATOM     23  CG2 VAL A   7     -61.740 -21.073 -24.816  0.00  0.00    +0.002 C 
ATOM     24  CG1 VAL A   7     -63.231 -19.458 -25.994  0.00  0.00    +0.002 C 
ENDBRANCH  21  22
BRANCH  21  25
ATOM     25  C   VAL A   7     -65.560 -21.385 -25.249  0.00  0.00    +0.227 C 
ATOM     26  O   VAL A   7     -66.281 -21.165 -26.219  0.00  0.00    -0.286 OA
ENDBRANCH  21  25
ENDBRANCH  19  21
ENDBRANCH  16  17
BRANCH  16  27
ATOM     27  CB  THR A   6     -64.351 -24.747 -28.906  0.00  0.00    +0.137 C 
ATOM     28  CG2 THR A   6     -65.649 -24.326 -28.224  0.00  0.00    +0.034 C 
BRANCH  27  29
ATOM     29  OG1 THR A   6     -64.557 -24.779 -30.324  0.00  0.00    -0.382 OA
ATOM     30  HG1 THR A   6     -65.297 -25.402 -30.535  0.00  0.00    +0.210 HD
ENDBRANCH  27  29
ENDBRANCH  16  27
ENDBRANCH  13  16
ENDBRANCH  11  12
ENDBRANCH   9  11
ENDBRANCH   6   7
BRANCH   6  31
ATOM     31  CB  THR A   4     -56.181 -24.386 -33.366  0.00  0.00    +0.137 C 
ATOM     32  CG2 THR A   4     -55.385 -24.848 -34.579  0.00  0.00    +0.034 C 
BRANCH  31  33
ATOM     33  OG1 THR A   4     -56.061 -22.968 -33.250  0.00  0.00    -0.382 OA
ATOM     34  HG1 THR A   4     -55.106 -22.725 -33.156  0.00  0.00    +0.210 HD
ENDBRANCH  31  33
ENDBRANCH   6  31
ENDBRANCH   3   6
ENDBRANCH   1   2
BRANCH   1  37
ATOM     35  C   TYR A   2     -61.163 -22.149 -34.140  0.00  0.00    +0.241 C 
ATOM     36  O   TYR A   2     -61.769 -23.210 -33.921  0.00  0.00    -0.273 OA
ATOM     37  N   SER A   3     -60.285 -21.987 -35.123  0.00  0.00    -0.295 N 
ATOM     38  H   SER A   3     -59.807 -21.069 -35.225  0.00  0.00    +0.150 HD
BRANCH  35  39
ATOM     39  CA  TYR A   2     -61.394 -20.923 -33.281  0.00  0.00    +0.153 C 
BRANCH  39  41
ATOM     40  C   ARG A   1     -63.675 -20.804 -32.453  0.00  0.00    +0.238 C 
ATOM     41  N   TYR A   2     -62.425 -21.225 -32.317  0.00  0.00    -0.297 N 
ATOM     42  H   TYR A   2     -62.178 -21.795 -31.483  0.00  0.00    +0.150 HD
ATOM     43  O   ARG A   1     -64.047 -20.053 -33.366  0.00  0.00    -0.274 OA
BRANCH  40  44
ATOM     44  CA  ARG A   1     -64.627 -21.295 -31.364  0.00  0.00    +0.145 C 
BRANCH  44  45
ATOM     45  N   ARG A   1     -65.391 -20.190 -30.826  0.00  0.00    -0.238 NA
ATOM     46  H   ARG A   1     -65.890 -19.547 -31.474  0.00  0.00    +0.142 HD
ENDBRANCH  44  45
BRANCH  44  47
ATOM     47  CB  ARG A   1     -65.563 -22.384 -31.881  0.00  0.00    +0.030 C 
BRANCH  47  48
ATOM     48  CG  ARG A   1     -66.659 -21.870 -32.777  0.00  0.00    +0.045 C 
BRANCH  48  49
ATOM     49  CD  ARG A   1     -67.508 -22.999 -33.277  0.00  0.00    +0.174 C 
BRANCH  49  50
ATOM     50  NE  ARG A   1     -68.401 -23.575 -32.252  0.00  0.00    -0.265 N 
ATOM     51  HE  ARG A   1     -68.078 -24.434 -31.762  0.00  0.00    +0.259 HD
ATOM     52  CZ  ARG A   1     -69.592 -23.079 -31.905  0.00  0.00    +0.342 C 
ATOM     53  NH2 ARG A   1     -70.319 -23.695 -30.981  0.00  0.00    -0.292 N 
ATOM     54 HH21 ARG A   1     -69.961 -24.561 -30.530  0.00  0.00    +0.255 HD
ATOM     55 HH22 ARG A   1     -71.247 -23.312 -30.708  0.00  0.00    +0.255 HD
ATOM     56  NH1 ARG A   1     -70.064 -21.963 -32.466  0.00  0.00    -0.292 N 
ATOM     57 HH11 ARG A   1     -70.993 -21.592 -32.183  0.00  0.00    +0.255 HD
ATOM     58 HH12 ARG A   1     -69.502 -21.465 -33.186  0.00  0.00    +0.255 HD
ENDBRANCH  49  50
ENDBRANCH  48  49
ENDBRANCH  47  48
ENDBRANCH  44  47
ENDBRANCH  40  44
ENDBRANCH  39  41
BRANCH  39  59
ATOM     59  CB  TYR A   2     -60.116 -20.500 -32.544  0.00  0.00    +0.055 C 
BRANCH  59  60
ATOM     60  CG  TYR A   2     -60.396 -19.307 -31.678  0.00  0.00    -0.020 A 
ATOM     61  CD2 TYR A   2     -60.654 -19.446 -30.308  0.00  0.00    -0.001 A 
ATOM     62  CE2 TYR A   2     -60.958 -18.331 -29.527  0.00  0.00    +0.036 A 
ATOM     63  CZ  TYR A   2     -61.029 -17.078 -30.128  0.00  0.00    +0.134 A 
ATOM     64  CE1 TYR A   2     -60.803 -16.938 -31.480  0.00  0.00    +0.036 A 
ATOM     65  CD1 TYR A   2     -60.510 -18.050 -32.248  0.00  0.00    -0.001 A 
BRANCH  63  66
ATOM     66  OH  TYR A   2     -61.339 -15.951 -29.400  0.00  0.00    -0.506 OA
ATOM     67  HH  TYR A   2     -61.474 -16.199 -28.451  0.00  0.00    +0.292 HD
ENDBRANCH  63  66
ENDBRANCH  59  60
ENDBRANCH  39  59
ENDBRANCH  35  39
ENDBRANCH   1  37
BRANCH   1  68
ATOM     68  CB  SER A   3     -59.194 -22.480 -37.243  0.00  0.00    +0.166 C 
BRANCH  68  69
ATOM     69  OG  SER A   3     -59.483 -21.098 -37.404  0.00  0.00    -0.380 OA
ATOM     70  H   SER A   3     -58.973 -20.743 -38.175  0.00  0.00    +0.211 HD
ENDBRANCH  68  69
ENDBRANCH   1  68
TORSDOF 28
REMARK  Name = ../refined-set-2016/2il2/2il2_pocket.pdb
REMARK  282 active torsions:
REMARK  status: ('A' for Active; 'I' for Inactive)
REMARK    1  A    between atoms: _1  and  _3
REMARK    2  A    between atoms: _3  and  _4
REMARK    3  A    between atoms: _3  and  _6
REMARK    4  A    between atoms: _6  and  _7
REMARK    5  A    between atoms: _10  and  _12
REMARK    6  A    between atoms: _12  and  _13
REMARK    7  A    between atoms: _12  and  _15
REMARK    8  A    between atoms: _15  and  _16
REMARK    9  A    between atoms: _19  and  _21
REMARK   10  A    between atoms: _21  and  _22
REMARK   11  A    between atoms: _21  and  _24
REMARK   12  A    between atoms: _24  and  _25
REMARK   13  A    between atoms: _30  and  _31
REMARK   14  A    between atoms: _33  and  _35
REMARK   15  A    between atoms: _35  and  _36
REMARK   16  A    between atoms: _35  and  _38
REMARK   17  A    between atoms: _38  and  _39
REMARK   18  A    between atoms: _42  and  _44
REMARK   19  A    between atoms: _44  and  _45
REMARK   20  A    between atoms: _44  and  _47
REMARK   21  A    between atoms: _47  and  _48
REMARK   22  A    between atoms: _51  and  _53
REMARK   23  A    between atoms: _53  and  _54
REMARK   24  A    between atoms: _53  and  _56
REMARK   25  A    between atoms: _56  and  _57
REMARK   26  A    between atoms: _57  and  _58
REMARK   27  A    between atoms: _63  and  _65
REMARK   28  A    between atoms: _65  and  _66
REMARK   29  A    between atoms: _65  and  _68
REMARK   30  A    between atoms: _68  and  _69
REMARK   31  A    between atoms: _74  and  _75
REMARK   32  A    between atoms: _77  and  _79
REMARK   33  A    between atoms: _79  and  _80
REMARK   34  A    between atoms: _79  and  _82
REMARK   35  A    between atoms: _82  and  _83
REMARK   36  A    between atoms: _88  and  _89
REMARK   37  A    between atoms: _91  and  _93
REMARK   38  A    between atoms: _93  and  _94
REMARK   39  A    between atoms: _93  and  _96
REMARK   40  A    between atoms: _99  and  _101
REMARK   41  A    between atoms: _101  and  _102
REMARK   42  A    between atoms: _101  and  _104
REMARK   43  A    between atoms: _107  and  _109
REMARK   44  A    between atoms: _109  and  _110
REMARK   45  A    between atoms: _109  and  _112
REMARK   46  A    between atoms: _112  and  _113
REMARK   47  A    between atoms: _119  and  _121
REMARK   48  A    between atoms: _121  and  _122
REMARK   49  A    between atoms: _121  and  _124
REMARK   50  A    between atoms: _124  and  _125
REMARK   51  A    between atoms: _128  and  _130
REMARK   52  A    between atoms: _130  and  _131
REMARK   53  A    between atoms: _130  and  _133
REMARK   54  A    between atoms: _133  and  _134
REMARK   55  A    between atoms: _137  and  _139
REMARK   56  A    between atoms: _139  and  _140
REMARK   57  A    between atoms: _142  and  _144
REMARK   58  A    between atoms: _144  and  _145
REMARK   59  A    between atoms: _144  and  _147
REMARK   60  A    between atoms: _147  and  _148
REMARK   61  A    between atoms: _150  and  _152
REMARK   62  A    between atoms: _152  and  _153
REMARK   63  A    between atoms: _152  and  _155
REMARK   64  A    between atoms: _155  and  _156
REMARK   65  A    between atoms: _158  and  _160
REMARK   66  A    between atoms: _160  and  _161
REMARK   67  A    between atoms: _160  and  _163
REMARK   68  A    between atoms: _163  and  _164
REMARK   69  A    between atoms: _174  and  _176
REMARK   70  A    between atoms: _176  and  _177
REMARK   71  A    between atoms: _176  and  _179
REMARK   72  A    between atoms: _179  and  _180
REMARK   73  A    between atoms: _180  and  _181
REMARK   74  A    between atoms: _181  and  _182
REMARK   75  A    between atoms: _191  and  _193
REMARK   76  A    between atoms: _193  and  _194
REMARK   77  A    between atoms: _193  and  _196
REMARK   78  A    between atoms: _196  and  _197
REMARK   79  A    between atoms: _202  and  _203
REMARK   80  A    between atoms: _205  and  _207
REMARK   81  A    between atoms: _207  and  _208
REMARK   82  A    between atoms: _207  and  _210
REMARK   83  A    between atoms: _210  and  _211
REMARK   84  A    between atoms: _213  and  _215
REMARK   85  A    between atoms: _215  and  _216
REMARK   86  A    between atoms: _215  and  _218
REMARK   87  A    between atoms: _218  and  _219
REMARK   88  A    between atoms: _222  and  _224
REMARK   89  A    between atoms: _224  and  _225
REMARK   90  A    between atoms: _227  and  _229
REMARK   91  A    between atoms: _229  and  _230
REMARK   92  A    between atoms: _229  and  _232
REMARK   93  A    between atoms: _232  and  _233
REMARK   94  A    between atoms: _236  and  _238
REMARK   95  A    between atoms: _238  and  _239
REMARK   96  A    between atoms: _238  and  _241
REMARK   97  A    between atoms: _244  and  _246
REMARK   98  A    between atoms: _246  and  _247
REMARK   99  A    between atoms: _250  and  _252
REMARK  100  A    between atoms: _252  and  _253
REMARK  101  A    between atoms: _252  and  _255
REMARK  102  A    between atoms: _255  and  _256
REMARK  103  A    between atoms: _260  and  _261
REMARK  104  A    between atoms: _266  and  _268
REMARK  105  A    between atoms: _268  and  _269
REMARK  106  A    between atoms: _268  and  _271
REMARK  107  A    between atoms: _271  and  _272
REMARK  108  A    between atoms: _278  and  _280
REMARK  109  A    between atoms: _280  and  _281
REMARK  110  A    between atoms: _280  and  _283
REMARK  111  A    between atoms: _283  and  _284
REMARK  112  A    between atoms: _284  and  _285
REMARK  113  A    between atoms: _287  and  _289
REMARK  114  A    between atoms: _289  and  _290
REMARK  115  A    between atoms: _289  and  _292
REMARK  116  A    between atoms: _292  and  _293
REMARK  117  A    between atoms: _296  and  _298
REMARK  118  A    between atoms: _298  and  _299
REMARK  119  A    between atoms: _302  and  _304
REMARK  120  A    between atoms: _304  and  _305
REMARK  121  A    between atoms: _304  and  _307
REMARK  122  A    between atoms: _307  and  _308
REMARK  123  A    between atoms: _308  and  _309
REMARK  124  A    between atoms: _312  and  _314
REMARK  125  A    between atoms: _314  and  _315
REMARK  126  A    between atoms: _314  and  _317
REMARK  127  A    between atoms: _317  and  _318
REMARK  128  A    between atoms: _324  and  _326
REMARK  129  A    between atoms: _326  and  _327
REMARK  130  A    between atoms: _329  and  _331
REMARK  131  A    between atoms: _331  and  _332
REMARK  132  A    between atoms: _331  and  _334
REMARK  133  A    between atoms: _337  and  _339
REMARK  134  A    between atoms: _339  and  _340
REMARK  135  A    between atoms: _339  and  _342
REMARK  136  A    between atoms: _345  and  _347
REMARK  137  A    between atoms: _347  and  _348
REMARK  138  A    between atoms: _350  and  _352
REMARK  139  A    between atoms: _352  and  _353
REMARK  140  A    between atoms: _352  and  _355
REMARK  141  A    between atoms: _355  and  _356
REMARK  142  A    between atoms: _356  and  _357
REMARK  143  A    between atoms: _359  and  _361
REMARK  144  A    between atoms: _361  and  _362
REMARK  145  A    between atoms: _361  and  _364
REMARK  146  A    between atoms: _364  and  _365
REMARK  147  A    between atoms: _371  and  _373
REMARK  148  A    between atoms: _373  and  _374
REMARK  149  A    between atoms: _373  and  _376
REMARK  150  A    between atoms: _376  and  _377
REMARK  151  A    between atoms: _382  and  _383
REMARK  152  A    between atoms: _385  and  _387
REMARK  153  A    between atoms: _387  and  _388
REMARK  154  A    between atoms: _387  and  _390
REMARK  155  A    between atoms: _390  and  _391
REMARK  156  A    between atoms: _394  and  _396
REMARK  157  A    between atoms: _396  and  _397
REMARK  158  A    between atoms: _396  and  _399
REMARK  159  A    between atoms: _402  and  _404
REMARK  160  A    between atoms: _404  and  _405
REMARK  161  A    between atoms: _404  and  _407
REMARK  162  A    between atoms: _407  and  _408
REMARK  163  A    between atoms: _411  and  _413
REMARK  164  A    between atoms: _413  and  _414
REMARK  165  A    between atoms: _413  and  _416
REMARK  166  A    between atoms: _416  and  _417
REMARK  167  A    between atoms: _420  and  _422
REMARK  168  A    between atoms: _422  and  _423
REMARK  169  A    between atoms: _425  and  _427
REMARK  170  A    between atoms: _427  and  _428
REMARK  171  A    between atoms: _431  and  _433
REMARK  172  A    between atoms: _433  and  _434
REMARK  173  A    between atoms: _433  and  _436
REMARK  174  A    between atoms: _436  and  _437
REMARK  175  A    between atoms: _439  and  _441
REMARK  176  A    between atoms: _441  and  _442
REMARK  177  A    between atoms: _441  and  _444
REMARK  178  A    between atoms: _444  and  _445
REMARK  179  A    between atoms: _450  and  _451
REMARK  180  A    between atoms: _453  and  _455
REMARK  181  A    between atoms: _455  and  _456
REMARK  182  A    between atoms: _455  and  _458
REMARK  183  A    between atoms: _458  and  _459
REMARK  184  A    between atoms: _462  and  _464
REMARK  185  A    between atoms: _464  and  _465
REMARK  186  A    between atoms: _464  and  _467
REMARK  187  A    between atoms: _467  and  _468
REMARK  188  A    between atoms: _470  and  _472
REMARK  189  A    between atoms: _472  and  _473
REMARK  190  A    between atoms: _475  and  _477
REMARK  191  A    between atoms: _477  and  _478
REMARK  192  A    between atoms: _477  and  _480
REMARK  193  A    between atoms: _480  and  _481
REMARK  194  A    between atoms: _481  and  _482
REMARK  195  A    between atoms: _482  and  _483
REMARK  196  A    between atoms: _483  and  _484
REMARK  197  A    between atoms: _488  and  _490
REMARK  198  A    between atoms: _490  and  _491
REMARK  199  A    between atoms: _490  and  _493
REMARK  200  A    between atoms: _493  and  _494
REMARK  201  A    between atoms: _500  and  _502
REMARK  202  A    between atoms: _502  and  _503
REMARK  203  A    between atoms: _502  and  _505
REMARK  204  A    between atoms: _505  and  _506
REMARK  205  A    between atoms: _509  and  _511
REMARK  206  A    between atoms: _511  and  _512
REMARK  207  A    between atoms: _511  and  _514
REMARK  208  A    between atoms: _514  and  _515
REMARK  209  A    between atoms: _520  and  _521
REMARK  210  A    between atoms: _523  and  _525
REMARK  211  A    between atoms: _525  and  _526
REMARK  212  A    between atoms: _529  and  _531
REMARK  213  A    between atoms: _531  and  _532
REMARK  214  A    between atoms: _531  and  _534
REMARK  215  A    between atoms: _534  and  _535
REMARK  216  A    between atoms: _538  and  _540
REMARK  217  A    between atoms: _540  and  _541
REMARK  218  A    between atoms: _540  and  _543
REMARK  219  A    between atoms: _543  and  _544
REMARK  220  A    between atoms: _549  and  _551
REMARK  221  A    between atoms: _551  and  _552
REMARK  222  A    between atoms: _555  and  _557
REMARK  223  A    between atoms: _557  and  _558
REMARK  224  A    between atoms: _557  and  _560
REMARK  225  A    between atoms: _560  and  _561
REMARK  226  A    between atoms: _561  and  _562
REMARK  227  A    between atoms: _564  and  _566
REMARK  228  A    between atoms: _566  and  _567
REMARK  229  A    between atoms: _566  and  _569
REMARK  230  A    between atoms: _569  and  _570
REMARK  231  A    between atoms: _573  and  _575
REMARK  232  A    between atoms: _575  and  _576
REMARK  233  A    between atoms: _575  and  _578
REMARK  234  A    between atoms: _578  and  _579
REMARK  235  A    between atoms: _582  and  _584
REMARK  236  A    between atoms: _584  and  _585
REMARK  237  A    between atoms: _588  and  _590
REMARK  238  A    between atoms: _590  and  _591
REMARK  239  A    between atoms: _590  and  _593
REMARK  240  A    between atoms: _593  and  _594
REMARK  241  A    between atoms: _597  and  _599
REMARK  242  A    between atoms: _599  and  _600
REMARK  243  A    between atoms: _602  and  _604
REMARK  244  A    between atoms: _604  and  _605
REMARK  245  A    between atoms: _608  and  _610
REMARK  246  A    between atoms: _610  and  _611
REMARK  247  A    between atoms: _610  and  _613
REMARK  248  A    between atoms: _613  and  _614
REMARK  249  A    between atoms: _617  and  _619
REMARK  250  A    between atoms: _619  and  _620
REMARK  251  A    between atoms: _619  and  _622
REMARK  252  A    between atoms: _622  and  _623
REMARK  253  A    between atoms: _626  and  _628
REMARK  254  A    between atoms: _628  and  _629
REMARK  255  A    between atoms: _628  and  _631
REMARK  256  A    between atoms: _631  and  _632
REMARK  257  A    between atoms: _632  and  _633
REMARK  258  A    between atoms: _633  and  _634
REMARK  259  A    between atoms: _643  and  _645
REMARK  260  A    between atoms: _645  and  _646
REMARK  261  A    between atoms: _645  and  _648
REMARK  262  A    between atoms: _648  and  _649
REMARK  263  A    between atoms: _649  and  _650
REMARK  264  A    between atoms: _650  and  _651
REMARK  265  A    between atoms: _651  and  _652
REMARK  266  A    between atoms: _656  and  _658
REMARK  267  A    between atoms: _658  and  _659
REMARK  268  A    between atoms: _658  and  _661
REMARK  269  A    between atoms: _661  and  _662
REMARK  270  A    between atoms: _667  and  _669
REMARK  271  A    between atoms: _669  and  _670
REMARK  272  A    between atoms: _669  and  _672
REMARK  273  A    between atoms: _672  and  _673
REMARK  274  A    between atoms: _673  and  _674
REMARK  275  A    between atoms: _677  and  _679
REMARK  276  A    between atoms: _679  and  _680
REMARK  277  A    between atoms: _679  and  _682
REMARK  278  A    between atoms: _682  and  _683
REMARK  279  A    between atoms: _686  and  _688
REMARK  280  A    between atoms: _688  and  _689
REMARK  281  A    between atoms: _688  and  _691
REMARK  282  A    between atoms: _691  and  _692
REMARK                            x       y       z     vdW  Elec       q    Type
REMARK                         _______ _______ _______ _____ _____    ______ ____
ROOT
ATOM      1  CA  MET A   5     -52.784 -25.641 -22.027  0.00  0.00    +0.149 C 
ENDROOT
BRANCH   1   4
ATOM      2  C   PHE A   4     -54.379 -24.091 -23.070  0.00  0.00    +0.241 C 
ATOM      3  O   PHE A   4     -54.025 -23.157 -22.367  0.00  0.00    -0.273 OA
ATOM      4  N   MET A   5     -53.912 -25.327 -22.917  0.00  0.00    -0.297 N 
ATOM      5  H   MET A   5     -54.362 -26.101 -23.447  0.00  0.00    +0.150 HD
BRANCH   2   6
ATOM      6  CA  PHE A   4     -55.361 -23.850 -24.221  0.00  0.00    +0.153 C 
BRANCH   6   8
ATOM      7  C   PRO A   3     -54.684 -25.313 -26.010  0.00  0.00    +0.241 C 
ATOM      8  N   PHE A   4     -55.608 -24.978 -25.119  0.00  0.00    -0.297 N 
ATOM      9  H   PHE A   4     -56.499 -25.512 -25.060  0.00  0.00    +0.150 HD
ATOM     10  O   PRO A   3     -53.527 -24.888 -25.935  0.00  0.00    -0.273 OA
BRANCH   7  14
ATOM     11  C   LEU A   2     -57.134 -27.755 -26.834  0.00  0.00    +0.244 C 
ATOM     12  O   LEU A   2     -58.352 -27.904 -26.941  0.00  0.00    -0.273 OA
ATOM     13  N   PRO A   3     -56.499 -26.626 -27.221  0.00  0.00    -0.272 N 
ATOM     14  CA  PRO A   3     -55.081 -26.249 -27.163  0.00  0.00    +0.152 C 
ATOM     15  CB  PRO A   3     -54.910 -25.488 -28.475  0.00  0.00    +0.031 C 
ATOM     16  CG  PRO A   3     -56.257 -24.779 -28.655  0.00  0.00    +0.024 C 
ATOM     17  CD  PRO A   3     -57.289 -25.560 -27.866  0.00  0.00    +0.094 C 
BRANCH  11  18
ATOM     18  CA  LEU A   2     -56.293 -28.869 -26.232  0.00  0.00    +0.149 C 
BRANCH  18  21
ATOM     19  C   ALA A   1     -55.915 -28.433 -23.870  0.00  0.00    +0.238 C 
ATOM     20  O   ALA A   1     -54.798 -27.941 -24.090  0.00  0.00    -0.274 OA
ATOM     21  N   LEU A   2     -56.651 -28.997 -24.824  0.00  0.00    -0.297 N 
ATOM     22  H   LEU A   2     -57.498 -29.540 -24.561  0.00  0.00    +0.150 HD
BRANCH  19  23
ATOM     23  CA  ALA A   1     -56.499 -28.438 -22.451  0.00  0.00    +0.145 C 
ATOM     24  CB  ALA A   1     -56.117 -29.729 -21.729  0.00  0.00    +0.028 C 
BRANCH  23  25
ATOM     25  N   ALA A   1     -57.955 -28.252 -22.437  0.00  0.00    -0.238 NA
ATOM     26  H   ALA A   1     -58.549 -28.975 -21.983  0.00  0.00    +0.142 HD
ENDBRANCH  23  25
ENDBRANCH  19  23
ENDBRANCH  18  21
BRANCH  18  27
ATOM     27  CB  LEU A   2     -56.523 -30.176 -27.002  0.00  0.00    +0.029 C 
BRANCH  27  28
ATOM     28  CG  LEU A   2     -55.423 -31.242 -26.888  0.00  0.00    +0.002 C 
ATOM     29  CD2 LEU A   2     -55.760 -32.269 -25.803  0.00  0.00    +0.000 C 
ATOM     30  CD1 LEU A   2     -55.201 -31.933 -28.237  0.00  0.00    +0.000 C 
ENDBRANCH  27  28
ENDBRANCH  18  27
ENDBRANCH  11  18
ENDBRANCH   7  14
ENDBRANCH   6   8
BRANCH   6  31
ATOM     31  CB  PHE A   4     -56.683 -23.224 -23.759  0.00  0.00    +0.055 C 
BRANCH  31  32
ATOM     32  CG  PHE A   4     -57.436 -22.554 -24.880  0.00  0.00    -0.020 A 
ATOM     33  CD2 PHE A   4     -58.645 -23.069 -25.337  0.00  0.00    -0.004 A 
ATOM     34  CE2 PHE A   4     -59.326 -22.464 -26.389  0.00  0.00    -0.000 A 
ATOM     35  CZ  PHE A   4     -58.782 -21.339 -27.013  0.00  0.00    -0.000 A 
ATOM     36  CE1 PHE A   4     -57.563 -20.824 -26.573  0.00  0.00    -0.000 A 
ATOM     37  CD1 PHE A   4     -56.899 -21.439 -25.514  0.00  0.00    -0.004 A 
ENDBRANCH  31  32
ENDBRANCH   6  31
ENDBRANCH   2   6
ENDBRANCH   1   4
BRANCH   1  38
ATOM     38  C   MET A   5     -51.455 -25.257 -22.662  0.00  0.00    +0.241 C 
ATOM     39  O   MET A   5     -50.469 -25.050 -21.959  0.00  0.00    -0.273 OA
ATOM     40  N   LEU A   6     -51.422 -25.195 -23.990  0.00  0.00    -0.297 N 
ATOM     41  H   LEU A   6     -52.270 -25.463 -24.530  0.00  0.00    +0.150 HD
BRANCH  40  42
ATOM     42  CA  LEU A   6     -50.226 -24.760 -24.714  0.00  0.00    +0.149 C 
BRANCH  42  43
ATOM     43  C   LEU A   6     -50.146 -23.236 -24.804  0.00  0.00    +0.241 C 
ATOM     44  N   ALA A   7     -51.248 -22.550 -24.498  0.00  0.00    -0.297 N 
ATOM     45  H   ALA A   7     -52.093 -23.080 -24.204  0.00  0.00    +0.150 HD
ATOM     46  O   LEU A   6     -49.101 -22.704 -25.127  0.00  0.00    -0.273 OA
BRANCH  44  47
ATOM     47  CA  ALA A   7     -51.328 -21.085 -24.555  0.00  0.00    +0.149 C 
ATOM     48  CB  ALA A   7     -52.762 -20.654 -24.508  0.00  0.00    +0.031 C 
BRANCH  47  49
ATOM     49  C   ALA A   7     -50.551 -20.390 -23.433  0.00  0.00    +0.241 C 
ATOM     50  O   ALA A   7     -50.783 -20.646 -22.253  0.00  0.00    -0.273 OA
ATOM     51  N   GLU A   8     -49.631 -19.503 -23.817  0.00  0.00    -0.297 N 
ATOM     52  H   GLU A   8     -49.445 -19.381 -24.833  0.00  0.00    +0.150 HD
BRANCH  51  53
ATOM     53  CA  GLU A   8     -48.878 -18.699 -22.862  0.00  0.00    +0.149 C 
BRANCH  53  54
ATOM     54  C   GLU A   8     -49.667 -17.462 -22.502  0.00  0.00    +0.241 C 
ATOM     55  O   GLU A   8     -49.349 -16.771 -21.541  0.00  0.00    -0.273 OA
ATOM     56  N   PHE A   9     -50.682 -17.184 -23.308  0.00  0.00    -0.298 N 
ATOM     57  H   PHE A   9     -50.829 -17.789 -24.141  0.00  0.00    +0.150 HD
BRANCH  56  58
ATOM     58  CA  PHE A   9     -51.598 -16.082 -23.091  0.00  0.00    +0.141 C 
BRANCH  58  59
ATOM     59  C   PHE A   9     -52.822 -16.581 -22.342  0.00  0.00    +0.227 C 
ATOM     60  O   PHE A   9     -53.139 -17.776 -22.381  0.00  0.00    -0.286 OA
ENDBRANCH  58  59
BRANCH  58  61
ATOM     61  CB  PHE A   9     -52.015 -15.463 -24.434  0.00  0.00    +0.054 C 
BRANCH  61  62
ATOM     62  CG  PHE A   9     -52.596 -16.448 -25.417  0.00  0.00    -0.020 A 
ATOM     63  CD2 PHE A   9     -53.972 -16.675 -25.472  0.00  0.00    -0.004 A 
ATOM     64  CE2 PHE A   9     -54.509 -17.584 -26.394  0.00  0.00    -0.000 A 
ATOM     65  CZ  PHE A   9     -53.661 -18.260 -27.272  0.00  0.00    -0.000 A 
ATOM     66  CE1 PHE A   9     -52.292 -18.024 -27.231  0.00  0.00    -0.000 A 
ATOM     67  CD1 PHE A   9     -51.774 -17.128 -26.314  0.00  0.00    -0.004 A 
ENDBRANCH  61  62
ENDBRANCH  58  61
ENDBRANCH  56  58
ENDBRANCH  53  54
BRANCH  53  68
ATOM     68  CB  GLU A   8     -47.533 -18.276 -23.446  0.00  0.00    +0.041 C 
BRANCH  68  69
ATOM     69  CG  GLU A   8     -46.521 -19.384 -23.608  0.00  0.00    +0.116 C 
BRANCH  69  70
ATOM     70  CD  GLU A   8     -46.052 -19.922 -22.288  0.00  0.00    +0.365 C 
ATOM     71  OE2 GLU A   8     -46.140 -19.179 -21.276  0.00  0.00    -0.246 OA
ATOM     72  OE1 GLU A   8     -45.611 -21.090 -22.260  0.00  0.00    -0.246 OA
ENDBRANCH  69  70
ENDBRANCH  68  69
ENDBRANCH  53  68
ENDBRANCH  51  53
ENDBRANCH  47  49
ENDBRANCH  44  47
ENDBRANCH  42  43
BRANCH  42  73
ATOM     73  CB  LEU A   6     -50.191 -25.392 -26.121  0.00  0.00    +0.029 C 
BRANCH  73  74
ATOM     74  CG  LEU A   6     -50.328 -26.925 -26.122  0.00  0.00    +0.002 C 
ATOM     75  CD2 LEU A   6     -49.325 -27.547 -25.162  0.00  0.00    +0.000 C 
ATOM     76  CD1 LEU A   6     -50.167 -27.507 -27.506  0.00  0.00    +0.000 C 
ENDBRANCH  73  74
ENDBRANCH  42  73
ENDBRANCH  40  42
ENDBRANCH   1  38
BRANCH   1  77
ATOM     77  CB  MET A   5     -52.737 -27.142 -21.667  0.00  0.00    +0.041 C 
BRANCH  77  78
ATOM     78  CG  MET A   5     -53.439 -27.507 -20.374  0.00  0.00    +0.060 C 
BRANCH  78  79
ATOM     79  SD  MET A   5     -52.803 -26.573 -18.960  0.00  0.00    -0.139 S 
ATOM     80  CE  MET A   5     -51.161 -27.282 -18.775  0.00  0.00    +0.069 C 
ENDBRANCH  78  79
ENDBRANCH  77  78
ENDBRANCH   1  77
TORSDOF 31
REMARK  Name = ../refined-set-2016/2il2/2il2_pocket.pdb
REMARK  282 active torsions:
REMARK  status: ('A' for Active; 'I' for Inactive)
REMARK    1  A    between atoms: _1  and  _3
REMARK    2  A    between atoms: _3  and  _4
REMARK    3  A    between atoms: _3  and  _6
REMARK    4  A    between atoms: _6  and  _7
REMARK    5  A    between atoms: _10  and  _12
REMARK    6  A    between atoms: _12  and  _13
REMARK    7  A    between atoms: _12  and  _15
REMARK    8  A    between atoms: _15  and  _16
REMARK    9  A    between atoms: _19  and  _21
REMARK   10  A    between atoms: _21  and  _22
REMARK   11  A    between atoms: _21  and  _24
REMARK   12  A    between atoms: _24  and  _25
REMARK   13  A    between atoms: _30  and  _31
REMARK   14  A    between atoms: _33  and  _35
REMARK   15  A    between atoms: _35  and  _36
REMARK   16  A    between atoms: _35  and  _38
REMARK   17  A    between atoms: _38  and  _39
REMARK   18  A    between atoms: _42  and  _44
REMARK   19  A    between atoms: _44  and  _45
REMARK   20  A    between atoms: _44  and  _47
REMARK   21  A    between atoms: _47  and  _48
REMARK   22  A    between atoms: _51  and  _53
REMARK   23  A    between atoms: _53  and  _54
REMARK   24  A    between atoms: _53  and  _56
REMARK   25  A    between atoms: _56  and  _57
REMARK   26  A    between atoms: _57  and  _58
REMARK   27  A    between atoms: _63  and  _65
REMARK   28  A    between atoms: _65  and  _66
REMARK   29  A    between atoms: _65  and  _68
REMARK   30  A    between atoms: _68  and  _69
REMARK   31  A    between atoms: _74  and  _75
REMARK   32  A    between atoms: _77  and  _79
REMARK   33  A    between atoms: _79  and  _80
REMARK   34  A    between atoms: _79  and  _82
REMARK   35  A    between atoms: _82  and  _83
REMARK   36  A    between atoms: _88  and  _89
REMARK   37  A    between atoms: _91  and  _93
REMARK   38  A    between atoms: _93  and  _94
REMARK   39  A    between atoms: _93  and  _96
REMARK   40  A    between atoms: _99  and  _101
REMARK   41  A    between atoms: _101  and  _102
REMARK   42  A    between atoms: _101  and  _104
REMARK   43  A    between atoms: _107  and  _109
REMARK   44  A    between atoms: _109  and  _110
REMARK   45  A    between atoms: _109  and  _112
REMARK   46  A    between atoms: _112  and  _113
REMARK   47  A    between atoms: _119  and  _121
REMARK   48  A    between atoms: _121  and  _122
REMARK   49  A    between atoms: _121  and  _124
REMARK   50  A    between atoms: _124  and  _125
REMARK   51  A    between atoms: _128  and  _130
REMARK   52  A    between atoms: _130  and  _131
REMARK   53  A    between atoms: _130  and  _133
REMARK   54  A    between atoms: _133  and  _134
REMARK   55  A    between atoms: _137  and  _139
REMARK   56  A    between atoms: _139  and  _140
REMARK   57  A    between atoms: _142  and  _144
REMARK   58  A    between atoms: _144  and  _145
REMARK   59  A    between atoms: _144  and  _147
REMARK   60  A    between atoms: _147  and  _148
REMARK   61  A    between atoms: _150  and  _152
REMARK   62  A    between atoms: _152  and  _153
REMARK   63  A    between atoms: _152  and  _155
REMARK   64  A    between atoms: _155  and  _156
REMARK   65  A    between atoms: _158  and  _160
REMARK   66  A    between atoms: _160  and  _161
REMARK   67  A    between atoms: _160  and  _163
REMARK   68  A    between atoms: _163  and  _164
REMARK   69  A    between atoms: _174  and  _176
REMARK   70  A    between atoms: _176  and  _177
REMARK   71  A    between atoms: _176  and  _179
REMARK   72  A    between atoms: _179  and  _180
REMARK   73  A    between atoms: _180  and  _181
REMARK   74  A    between atoms: _181  and  _182
REMARK   75  A    between atoms: _191  and  _193
REMARK   76  A    between atoms: _193  and  _194
REMARK   77  A    between atoms: _193  and  _196
REMARK   78  A    between atoms: _196  and  _197
REMARK   79  A    between atoms: _202  and  _203
REMARK   80  A    between atoms: _205  and  _207
REMARK   81  A    between atoms: _207  and  _208
REMARK   82  A    between atoms: _207  and  _210
REMARK   83  A    between atoms: _210  and  _211
REMARK   84  A    between atoms: _213  and  _215
REMARK   85  A    between atoms: _215  and  _216
REMARK   86  A    between atoms: _215  and  _218
REMARK   87  A    between atoms: _218  and  _219
REMARK   88  A    between atoms: _222  and  _224
REMARK   89  A    between atoms: _224  and  _225
REMARK   90  A    between atoms: _227  and  _229
REMARK   91  A    between atoms: _229  and  _230
REMARK   92  A    between atoms: _229  and  _232
REMARK   93  A    between atoms: _232  and  _233
REMARK   94  A    between atoms: _236  and  _238
REMARK   95  A    between atoms: _238  and  _239
REMARK   96  A    between atoms: _238  and  _241
REMARK   97  A    between atoms: _244  and  _246
REMARK   98  A    between atoms: _246  and  _247
REMARK   99  A    between atoms: _250  and  _252
REMARK  100  A    between atoms: _252  and  _253
REMARK  101  A    between atoms: _252  and  _255
REMARK  102  A    between atoms: _255  and  _256
REMARK  103  A    between atoms: _260  and  _261
REMARK  104  A    between atoms: _266  and  _268
REMARK  105  A    between atoms: _268  and  _269
REMARK  106  A    between atoms: _268  and  _271
REMARK  107  A    between atoms: _271  and  _272
REMARK  108  A    between atoms: _278  and  _280
REMARK  109  A    between atoms: _280  and  _281
REMARK  110  A    between atoms: _280  and  _283
REMARK  111  A    between atoms: _283  and  _284
REMARK  112  A    between atoms: _284  and  _285
REMARK  113  A    between atoms: _287  and  _289
REMARK  114  A    between atoms: _289  and  _290
REMARK  115  A    between atoms: _289  and  _292
REMARK  116  A    between atoms: _292  and  _293
REMARK  117  A    between atoms: _296  and  _298
REMARK  118  A    between atoms: _298  and  _299
REMARK  119  A    between atoms: _302  and  _304
REMARK  120  A    between atoms: _304  and  _305
REMARK  121  A    between atoms: _304  and  _307
REMARK  122  A    between atoms: _307  and  _308
REMARK  123  A    between atoms: _308  and  _309
REMARK  124  A    between atoms: _312  and  _314
REMARK  125  A    between atoms: _314  and  _315
REMARK  126  A    between atoms: _314  and  _317
REMARK  127  A    between atoms: _317  and  _318
REMARK  128  A    between atoms: _324  and  _326
REMARK  129  A    between atoms: _326  and  _327
REMARK  130  A    between atoms: _329  and  _331
REMARK  131  A    between atoms: _331  and  _332
REMARK  132  A    between atoms: _331  and  _334
REMARK  133  A    between atoms: _337  and  _339
REMARK  134  A    between atoms: _339  and  _340
REMARK  135  A    between atoms: _339  and  _342
REMARK  136  A    between atoms: _345  and  _347
REMARK  137  A    between atoms: _347  and  _348
REMARK  138  A    between atoms: _350  and  _352
REMARK  139  A    between atoms: _352  and  _353
REMARK  140  A    between atoms: _352  and  _355
REMARK  141  A    between atoms: _355  and  _356
REMARK  142  A    between atoms: _356  and  _357
REMARK  143  A    between atoms: _359  and  _361
REMARK  144  A    between atoms: _361  and  _362
REMARK  145  A    between atoms: _361  and  _364
REMARK  146  A    between atoms: _364  and  _365
REMARK  147  A    between atoms: _371  and  _373
REMARK  148  A    between atoms: _373  and  _374
REMARK  149  A    between atoms: _373  and  _376
REMARK  150  A    between atoms: _376  and  _377
REMARK  151  A    between atoms: _382  and  _383
REMARK  152  A    between atoms: _385  and  _387
REMARK  153  A    between atoms: _387  and  _388
REMARK  154  A    between atoms: _387  and  _390
REMARK  155  A    between atoms: _390  and  _391
REMARK  156  A    between atoms: _394  and  _396
REMARK  157  A    between atoms: _396  and  _397
REMARK  158  A    between atoms: _396  and  _399
REMARK  159  A    between atoms: _402  and  _404
REMARK  160  A    between atoms: _404  and  _405
REMARK  161  A    between atoms: _404  and  _407
REMARK  162  A    between atoms: _407  and  _408
REMARK  163  A    between atoms: _411  and  _413
REMARK  164  A    between atoms: _413  and  _414
REMARK  165  A    between atoms: _413  and  _416
REMARK  166  A    between atoms: _416  and  _417
REMARK  167  A    between atoms: _420  and  _422
REMARK  168  A    between atoms: _422  and  _423
REMARK  169  A    between atoms: _425  and  _427
REMARK  170  A    between atoms: _427  and  _428
REMARK  171  A    between atoms: _431  and  _433
REMARK  172  A    between atoms: _433  and  _434
REMARK  173  A    between atoms: _433  and  _436
REMARK  174  A    between atoms: _436  and  _437
REMARK  175  A    between atoms: _439  and  _441
REMARK  176  A    between atoms: _441  and  _442
REMARK  177  A    between atoms: _441  and  _444
REMARK  178  A    between atoms: _444  and  _445
REMARK  179  A    between atoms: _450  and  _451
REMARK  180  A    between atoms: _453  and  _455
REMARK  181  A    between atoms: _455  and  _456
REMARK  182  A    between atoms: _455  and  _458
REMARK  183  A    between atoms: _458  and  _459
REMARK  184  A    between atoms: _462  and  _464
REMARK  185  A    between atoms: _464  and  _465
REMARK  186  A    between atoms: _464  and  _467
REMARK  187  A    between atoms: _467  and  _468
REMARK  188  A    between atoms: _470  and  _472
REMARK  189  A    between atoms: _472  and  _473
REMARK  190  A    between atoms: _475  and  _477
REMARK  191  A    between atoms: _477  and  _478
REMARK  192  A    between atoms: _477  and  _480
REMARK  193  A    between atoms: _480  and  _481
REMARK  194  A    between atoms: _481  and  _482
REMARK  195  A    between atoms: _482  and  _483
REMARK  196  A    between atoms: _483  and  _484
REMARK  197  A    between atoms: _488  and  _490
REMARK  198  A    between atoms: _490  and  _491
REMARK  199  A    between atoms: _490  and  _493
REMARK  200  A    between atoms: _493  and  _494
REMARK  201  A    between atoms: _500  and  _502
REMARK  202  A    between atoms: _502  and  _503
REMARK  203  A    between atoms: _502  and  _505
REMARK  204  A    between atoms: _505  and  _506
REMARK  205  A    between atoms: _509  and  _511
REMARK  206  A    between atoms: _511  and  _512
REMARK  207  A    between atoms: _511  and  _514
REMARK  208  A    between atoms: _514  and  _515
REMARK  209  A    between atoms: _520  and  _521
REMARK  210  A    between atoms: _523  and  _525
REMARK  211  A    between atoms: _525  and  _526
REMARK  212  A    between atoms: _529  and  _531
REMARK  213  A    between atoms: _531  and  _532
REMARK  214  A    between atoms: _531  and  _534
REMARK  215  A    between atoms: _534  and  _535
REMARK  216  A    between atoms: _538  and  _540
REMARK  217  A    between atoms: _540  and  _541
REMARK  218  A    between atoms: _540  and  _543
REMARK  219  A    between atoms: _543  and  _544
REMARK  220  A    between atoms: _549  and  _551
REMARK  221  A    between atoms: _551  and  _552
REMARK  222  A    between atoms: _555  and  _557
REMARK  223  A    between atoms: _557  and  _558
REMARK  224  A    between atoms: _557  and  _560
REMARK  225  A    between atoms: _560  and  _561
REMARK  226  A    between atoms: _561  and  _562
REMARK  227  A    between atoms: _564  and  _566
REMARK  228  A    between atoms: _566  and  _567
REMARK  229  A    between atoms: _566  and  _569
REMARK  230  A    between atoms: _569  and  _570
REMARK  231  A    between atoms: _573  and  _575
REMARK  232  A    between atoms: _575  and  _576
REMARK  233  A    between atoms: _575  and  _578
REMARK  234  A    between atoms: _578  and  _579
REMARK  235  A    between atoms: _582  and  _584
REMARK  236  A    between atoms: _584  and  _585
REMARK  237  A    between atoms: _588  and  _590
REMARK  238  A    between atoms: _590  and  _591
REMARK  239  A    between atoms: _590  and  _593
REMARK  240  A    between atoms: _593  and  _594
REMARK  241  A    between atoms: _597  and  _599
REMARK  242  A    between atoms: _599  and  _600
REMARK  243  A    between atoms: _602  and  _604
REMARK  244  A    between atoms: _604  and  _605
REMARK  245  A    between atoms: _608  and  _610
REMARK  246  A    between atoms: _610  and  _611
REMARK  247  A    between atoms: _610  and  _613
REMARK  248  A    between atoms: _613  and  _614
REMARK  249  A    between atoms: _617  and  _619
REMARK  250  A    between atoms: _619  and  _620
REMARK  251  A    between atoms: _619  and  _622
REMARK  252  A    between atoms: _622  and  _623
REMARK  253  A    between atoms: _626  and  _628
REMARK  254  A    between atoms: _628  and  _629
REMARK  255  A    between atoms: _628  and  _631
REMARK  256  A    between atoms: _631  and  _632
REMARK  257  A    between atoms: _632  and  _633
REMARK  258  A    between atoms: _633  and  _634
REMARK  259  A    between atoms: _643  and  _645
REMARK  260  A    between atoms: _645  and  _646
REMARK  261  A    between atoms: _645  and  _648
REMARK  262  A    between atoms: _648  and  _649
REMARK  263  A    between atoms: _649  and  _650
REMARK  264  A    between atoms: _650  and  _651
REMARK  265  A    between atoms: _651  and  _652
REMARK  266  A    between atoms: _656  and  _658
REMARK  267  A    between atoms: _658  and  _659
REMARK  268  A    between atoms: _658  and  _661
REMARK  269  A    between atoms: _661  and  _662
REMARK  270  A    between atoms: _667  and  _669
REMARK  271  A    between atoms: _669  and  _670
REMARK  272  A    between atoms: _669  and  _672
REMARK  273  A    between atoms: _672  and  _673
REMARK  274  A    between atoms: _673  and  _674
REMARK  275  A    between atoms: _677  and  _679
REMARK  276  A    between atoms: _679  and  _680
REMARK  277  A    between atoms: _679  and  _682
REMARK  278  A    between atoms: _682  and  _683
REMARK  279  A    between atoms: _686  and  _688
REMARK  280  A    between atoms: _688  and  _689
REMARK  281  A    between atoms: _688  and  _691
REMARK  282  A    between atoms: _691  and  _692
REMARK                            x       y       z     vdW  Elec       q    Type
REMARK                         _______ _______ _______ _____ _____    ______ ____
ROOT
ATOM      1  CA  VAL A   3     -58.774  -9.296 -27.735  0.00  0.00    +0.149 C 
ENDROOT
BRANCH   1   4
ATOM      2  C   VAL A   2     -58.740 -11.537 -26.729  0.00  0.00    +0.241 C 
ATOM      3  O   VAL A   2     -59.842 -11.437 -26.222  0.00  0.00    -0.273 OA
ATOM      4  N   VAL A   3     -58.116 -10.542 -27.368  0.00  0.00    -0.297 N 
ATOM      5  H   VAL A   3     -57.113 -10.664 -27.615  0.00  0.00    +0.150 HD
BRANCH   2   6
ATOM      6  CA  VAL A   2     -57.995 -12.854 -26.653  0.00  0.00    +0.148 C 
BRANCH   6   9
ATOM      7  C   GLY A   1     -56.981 -13.986 -24.762  0.00  0.00    +0.240 C 
ATOM      8  O   GLY A   1     -55.896 -14.036 -25.303  0.00  0.00    -0.274 OA
ATOM      9  N   VAL A   2     -58.038 -13.407 -25.312  0.00  0.00    -0.297 N 
ATOM     10  H   VAL A   2     -58.922 -13.347 -24.768  0.00  0.00    +0.150 HD
BRANCH   7  11
ATOM     11  CA  GLY A   1     -57.209 -14.609 -23.417  0.00  0.00    +0.169 C 
BRANCH  11  12
ATOM     12  N   GLY A   1     -55.996 -14.887 -22.657  0.00  0.00    -0.236 NA
ATOM     13  H   GLY A   1     -55.161 -14.280 -22.785  0.00  0.00    +0.142 HD
ENDBRANCH  11  12
ENDBRANCH   7  11
ENDBRANCH   6   9
BRANCH   6  14
ATOM     14  CB  VAL A   2     -58.610 -13.835 -27.694  0.00  0.00    +0.027 C 
ATOM     15  CG2 VAL A   2     -57.844 -15.168 -27.704  0.00  0.00    +0.002 C 
ATOM     16  CG1 VAL A   2     -58.597 -13.207 -29.082  0.00  0.00    +0.002 C 
ENDBRANCH   6  14
ENDBRANCH   2   6
ENDBRANCH   1   4
BRANCH   1  17
ATOM     17  C   VAL A   3     -58.981  -9.311 -29.245  0.00  0.00    +0.241 C 
ATOM     18  N   GLY A   4     -60.237  -9.462 -29.628  0.00  0.00    -0.295 N 
ATOM     19  H   GLY A   4     -60.977  -9.521 -28.900  0.00  0.00    +0.150 HD
ATOM     20  O   VAL A   3     -58.036  -9.231 -30.034  0.00  0.00    -0.273 OA
BRANCH  18  21
ATOM     21  CA  GLY A   4     -60.623  -9.548 -31.019  0.00  0.00    +0.176 C 
BRANCH  21  22
ATOM     22  C   GLY A   4     -60.611  -8.172 -31.629  0.00  0.00    +0.243 C 
ATOM     23  O   GLY A   4     -61.290  -7.245 -31.134  0.00  0.00    -0.273 OA
ATOM     24  N   MET A   5     -59.834  -8.052 -32.705  0.00  0.00    -0.298 N 
ATOM     25  H   MET A   5     -59.336  -8.897 -33.052  0.00  0.00    +0.150 HD
BRANCH  24  26
ATOM     26  CA  MET A   5     -59.647  -6.793 -33.422  0.00  0.00    +0.138 C 
BRANCH  26  27
ATOM     27  C   MET A   5     -60.433  -6.792 -34.731  0.00  0.00    +0.227 C 
ATOM     28  O   MET A   5     -60.299  -5.868 -35.545  0.00  0.00    -0.286 OA
ENDBRANCH  26  27
BRANCH  26  29
ATOM     29  CB  MET A   5     -58.153  -6.569 -33.698  0.00  0.00    +0.039 C 
BRANCH  29  30
ATOM     30  CG  MET A   5     -57.260  -6.393 -32.452  0.00  0.00    +0.060 C 
BRANCH  30  31
ATOM     31  SD  MET A   5     -57.837  -5.057 -31.407  0.00  0.00    -0.139 S 
ATOM     32  CE  MET A   5     -57.237  -3.602 -32.317  0.00  0.00    +0.069 C 
ENDBRANCH  30  31
ENDBRANCH  29  30
ENDBRANCH  26  29
ENDBRANCH  24  26
ENDBRANCH  21  22
ENDBRANCH  18  21
ENDBRANCH   1  17
BRANCH   1  33
ATOM     33  CB  VAL A   3     -57.993  -8.059 -27.281  0.00  0.00    +0.027 C 
ATOM     34  CG2 VAL A   3     -58.022  -7.975 -25.739  0.00  0.00    +0.002 C 
ATOM     35  CG1 VAL A   3     -58.577  -6.768 -27.926  0.00  0.00    +0.002 C 
ENDBRANCH   1  33
TORSDOF 15
REMARK  Name = ../refined-set-2016/2il2/2il2_pocket.pdb
REMARK  282 active torsions:
REMARK  status: ('A' for Active; 'I' for Inactive)
REMARK    1  A    between atoms: _1  and  _3
REMARK    2  A    between atoms: _3  and  _4
REMARK    3  A    between atoms: _3  and  _6
REMARK    4  A    between atoms: _6  and  _7
REMARK    5  A    between atoms: _10  and  _12
REMARK    6  A    between atoms: _12  and  _13
REMARK    7  A    between atoms: _12  and  _15
REMARK    8  A    between atoms: _15  and  _16
REMARK    9  A    between atoms: _19  and  _21
REMARK   10  A    between atoms: _21  and  _22
REMARK   11  A    between atoms: _21  and  _24
REMARK   12  A    between atoms: _24  and  _25
REMARK   13  A    between atoms: _30  and  _31
REMARK   14  A    between atoms: _33  and  _35
REMARK   15  A    between atoms: _35  and  _36
REMARK   16  A    between atoms: _35  and  _38
REMARK   17  A    between atoms: _38  and  _39
REMARK   18  A    between atoms: _42  and  _44
REMARK   19  A    between atoms: _44  and  _45
REMARK   20  A    between atoms: _44  and  _47
REMARK   21  A    between atoms: _47  and  _48
REMARK   22  A    between atoms: _51  and  _53
REMARK   23  A    between atoms: _53  and  _54
REMARK   24  A    between atoms: _53  and  _56
REMARK   25  A    between atoms: _56  and  _57
REMARK   26  A    between atoms: _57  and  _58
REMARK   27  A    between atoms: _63  and  _65
REMARK   28  A    between atoms: _65  and  _66
REMARK   29  A    between atoms: _65  and  _68
REMARK   30  A    between atoms: _68  and  _69
REMARK   31  A    between atoms: _74  and  _75
REMARK   32  A    between atoms: _77  and  _79
REMARK   33  A    between atoms: _79  and  _80
REMARK   34  A    between atoms: _79  and  _82
REMARK   35  A    between atoms: _82  and  _83
REMARK   36  A    between atoms: _88  and  _89
REMARK   37  A    between atoms: _91  and  _93
REMARK   38  A    between atoms: _93  and  _94
REMARK   39  A    between atoms: _93  and  _96
REMARK   40  A    between atoms: _99  and  _101
REMARK   41  A    between atoms: _101  and  _102
REMARK   42  A    between atoms: _101  and  _104
REMARK   43  A    between atoms: _107  and  _109
REMARK   44  A    between atoms: _109  and  _110
REMARK   45  A    between atoms: _109  and  _112
REMARK   46  A    between atoms: _112  and  _113
REMARK   47  A    between atoms: _119  and  _121
REMARK   48  A    between atoms: _121  and  _122
REMARK   49  A    between atoms: _121  and  _124
REMARK   50  A    between atoms: _124  and  _125
REMARK   51  A    between atoms: _128  and  _130
REMARK   52  A    between atoms: _130  and  _131
REMARK   53  A    between atoms: _130  and  _133
REMARK   54  A    between atoms: _133  and  _134
REMARK   55  A    between atoms: _137  and  _139
REMARK   56  A    between atoms: _139  and  _140
REMARK   57  A    between atoms: _142  and  _144
REMARK   58  A    between atoms: _144  and  _145
REMARK   59  A    between atoms: _144  and  _147
REMARK   60  A    between atoms: _147  and  _148
REMARK   61  A    between atoms: _150  and  _152
REMARK   62  A    between atoms: _152  and  _153
REMARK   63  A    between atoms: _152  and  _155
REMARK   64  A    between atoms: _155  and  _156
REMARK   65  A    between atoms: _158  and  _160
REMARK   66  A    between atoms: _160  and  _161
REMARK   67  A    between atoms: _160  and  _163
REMARK   68  A    between atoms: _163  and  _164
REMARK   69  A    between atoms: _174  and  _176
REMARK   70  A    between atoms: _176  and  _177
REMARK   71  A    between atoms: _176  and  _179
REMARK   72  A    between atoms: _179  and  _180
REMARK   73  A    between atoms: _180  and  _181
REMARK   74  A    between atoms: _181  and  _182
REMARK   75  A    between atoms: _191  and  _193
REMARK   76  A    between atoms: _193  and  _194
REMARK   77  A    between atoms: _193  and  _196
REMARK   78  A    between atoms: _196  and  _197
REMARK   79  A    between atoms: _202  and  _203
REMARK   80  A    between atoms: _205  and  _207
REMARK   81  A    between atoms: _207  and  _208
REMARK   82  A    between atoms: _207  and  _210
REMARK   83  A    between atoms: _210  and  _211
REMARK   84  A    between atoms: _213  and  _215
REMARK   85  A    between atoms: _215  and  _216
REMARK   86  A    between atoms: _215  and  _218
REMARK   87  A    between atoms: _218  and  _219
REMARK   88  A    between atoms: _222  and  _224
REMARK   89  A    between atoms: _224  and  _225
REMARK   90  A    between atoms: _227  and  _229
REMARK   91  A    between atoms: _229  and  _230
REMARK   92  A    between atoms: _229  and  _232
REMARK   93  A    between atoms: _232  and  _233
REMARK   94  A    between atoms: _236  and  _238
REMARK   95  A    between atoms: _238  and  _239
REMARK   96  A    between atoms: _238  and  _241
REMARK   97  A    between atoms: _244  and  _246
REMARK   98  A    between atoms: _246  and  _247
REMARK   99  A    between atoms: _250  and  _252
REMARK  100  A    between atoms: _252  and  _253
REMARK  101  A    between atoms: _252  and  _255
REMARK  102  A    between atoms: _255  and  _256
REMARK  103  A    between atoms: _260  and  _261
REMARK  104  A    between atoms: _266  and  _268
REMARK  105  A    between atoms: _268  and  _269
REMARK  106  A    between atoms: _268  and  _271
REMARK  107  A    between atoms: _271  and  _272
REMARK  108  A    between atoms: _278  and  _280
REMARK  109  A    between atoms: _280  and  _281
REMARK  110  A    between atoms: _280  and  _283
REMARK  111  A    between atoms: _283  and  _284
REMARK  112  A    between atoms: _284  and  _285
REMARK  113  A    between atoms: _287  and  _289
REMARK  114  A    between atoms: _289  and  _290
REMARK  115  A    between atoms: _289  and  _292
REMARK  116  A    between atoms: _292  and  _293
REMARK  117  A    between atoms: _296  and  _298
REMARK  118  A    between atoms: _298  and  _299
REMARK  119  A    between atoms: _302  and  _304
REMARK  120  A    between atoms: _304  and  _305
REMARK  121  A    between atoms: _304  and  _307
REMARK  122  A    between atoms: _307  and  _308
REMARK  123  A    between atoms: _308  and  _309
REMARK  124  A    between atoms: _312  and  _314
REMARK  125  A    between atoms: _314  and  _315
REMARK  126  A    between atoms: _314  and  _317
REMARK  127  A    between atoms: _317  and  _318
REMARK  128  A    between atoms: _324  and  _326
REMARK  129  A    between atoms: _326  and  _327
REMARK  130  A    between atoms: _329  and  _331
REMARK  131  A    between atoms: _331  and  _332
REMARK  132  A    between atoms: _331  and  _334
REMARK  133  A    between atoms: _337  and  _339
REMARK  134  A    between atoms: _339  and  _340
REMARK  135  A    between atoms: _339  and  _342
REMARK  136  A    between atoms: _345  and  _347
REMARK  137  A    between atoms: _347  and  _348
REMARK  138  A    between atoms: _350  and  _352
REMARK  139  A    between atoms: _352  and  _353
REMARK  140  A    between atoms: _352  and  _355
REMARK  141  A    between atoms: _355  and  _356
REMARK  142  A    between atoms: _356  and  _357
REMARK  143  A    between atoms: _359  and  _361
REMARK  144  A    between atoms: _361  and  _362
REMARK  145  A    between atoms: _361  and  _364
REMARK  146  A    between atoms: _364  and  _365
REMARK  147  A    between atoms: _371  and  _373
REMARK  148  A    between atoms: _373  and  _374
REMARK  149  A    between atoms: _373  and  _376
REMARK  150  A    between atoms: _376  and  _377
REMARK  151  A    between atoms: _382  and  _383
REMARK  152  A    between atoms: _385  and  _387
REMARK  153  A    between atoms: _387  and  _388
REMARK  154  A    between atoms: _387  and  _390
REMARK  155  A    between atoms: _390  and  _391
REMARK  156  A    between atoms: _394  and  _396
REMARK  157  A    between atoms: _396  and  _397
REMARK  158  A    between atoms: _396  and  _399
REMARK  159  A    between atoms: _402  and  _404
REMARK  160  A    between atoms: _404  and  _405
REMARK  161  A    between atoms: _404  and  _407
REMARK  162  A    between atoms: _407  and  _408
REMARK  163  A    between atoms: _411  and  _413
REMARK  164  A    between atoms: _413  and  _414
REMARK  165  A    between atoms: _413  and  _416
REMARK  166  A    between atoms: _416  and  _417
REMARK  167  A    between atoms: _420  and  _422
REMARK  168  A    between atoms: _422  and  _423
REMARK  169  A    between atoms: _425  and  _427
REMARK  170  A    between atoms: _427  and  _428
REMARK  171  A    between atoms: _431  and  _433
REMARK  172  A    between atoms: _433  and  _434
REMARK  173  A    between atoms: _433  and  _436
REMARK  174  A    between atoms: _436  and  _437
REMARK  175  A    between atoms: _439  and  _441
REMARK  176  A    between atoms: _441  and  _442
REMARK  177  A    between atoms: _441  and  _444
REMARK  178  A    between atoms: _444  and  _445
REMARK  179  A    between atoms: _450  and  _451
REMARK  180  A    between atoms: _453  and  _455
REMARK  181  A    between atoms: _455  and  _456
REMARK  182  A    between atoms: _455  and  _458
REMARK  183  A    between atoms: _458  and  _459
REMARK  184  A    between atoms: _462  and  _464
REMARK  185  A    between atoms: _464  and  _465
REMARK  186  A    between atoms: _464  and  _467
REMARK  187  A    between atoms: _467  and  _468
REMARK  188  A    between atoms: _470  and  _472
REMARK  189  A    between atoms: _472  and  _473
REMARK  190  A    between atoms: _475  and  _477
REMARK  191  A    between atoms: _477  and  _478
REMARK  192  A    between atoms: _477  and  _480
REMARK  193  A    between atoms: _480  and  _481
REMARK  194  A    between atoms: _481  and  _482
REMARK  195  A    between atoms: _482  and  _483
REMARK  196  A    between atoms: _483  and  _484
REMARK  197  A    between atoms: _488  and  _490
REMARK  198  A    between atoms: _490  and  _491
REMARK  199  A    between atoms: _490  and  _493
REMARK  200  A    between atoms: _493  and  _494
REMARK  201  A    between atoms: _500  and  _502
REMARK  202  A    between atoms: _502  and  _503
REMARK  203  A    between atoms: _502  and  _505
REMARK  204  A    between atoms: _505  and  _506
REMARK  205  A    between atoms: _509  and  _511
REMARK  206  A    between atoms: _511  and  _512
REMARK  207  A    between atoms: _511  and  _514
REMARK  208  A    between atoms: _514  and  _515
REMARK  209  A    between atoms: _520  and  _521
REMARK  210  A    between atoms: _523  and  _525
REMARK  211  A    between atoms: _525  and  _526
REMARK  212  A    between atoms: _529  and  _531
REMARK  213  A    between atoms: _531  and  _532
REMARK  214  A    between atoms: _531  and  _534
REMARK  215  A    between atoms: _534  and  _535
REMARK  216  A    between atoms: _538  and  _540
REMARK  217  A    between atoms: _540  and  _541
REMARK  218  A    between atoms: _540  and  _543
REMARK  219  A    between atoms: _543  and  _544
REMARK  220  A    between atoms: _549  and  _551
REMARK  221  A    between atoms: _551  and  _552
REMARK  222  A    between atoms: _555  and  _557
REMARK  223  A    between atoms: _557  and  _558
REMARK  224  A    between atoms: _557  and  _560
REMARK  225  A    between atoms: _560  and  _561
REMARK  226  A    between atoms: _561  and  _562
REMARK  227  A    between atoms: _564  and  _566
REMARK  228  A    between atoms: _566  and  _567
REMARK  229  A    between atoms: _566  and  _569
REMARK  230  A    between atoms: _569  and  _570
REMARK  231  A    between atoms: _573  and  _575
REMARK  232  A    between atoms: _575  and  _576
REMARK  233  A    between atoms: _575  and  _578
REMARK  234  A    between atoms: _578  and  _579
REMARK  235  A    between atoms: _582  and  _584
REMARK  236  A    between atoms: _584  and  _585
REMARK  237  A    between atoms: _588  and  _590
REMARK  238  A    between atoms: _590  and  _591
REMARK  239  A    between atoms: _590  and  _593
REMARK  240  A    between atoms: _593  and  _594
REMARK  241  A    between atoms: _597  and  _599
REMARK  242  A    between atoms: _599  and  _600
REMARK  243  A    between atoms: _602  and  _604
REMARK  244  A    between atoms: _604  and  _605
REMARK  245  A    between atoms: _608  and  _610
REMARK  246  A    between atoms: _610  and  _611
REMARK  247  A    between atoms: _610  and  _613
REMARK  248  A    between atoms: _613  and  _614
REMARK  249  A    between atoms: _617  and  _619
REMARK  250  A    between atoms: _619  and  _620
REMARK  251  A    between atoms: _619  and  _622
REMARK  252  A    between atoms: _622  and  _623
REMARK  253  A    between atoms: _626  and  _628
REMARK  254  A    between atoms: _628  and  _629
REMARK  255  A    between atoms: _628  and  _631
REMARK  256  A    between atoms: _631  and  _632
REMARK  257  A    between atoms: _632  and  _633
REMARK  258  A    between atoms: _633  and  _634
REMARK  259  A    between atoms: _643  and  _645
REMARK  260  A    between atoms: _645  and  _646
REMARK  261  A    between atoms: _645  and  _648
REMARK  262  A    between atoms: _648  and  _649
REMARK  263  A    between atoms: _649  and  _650
REMARK  264  A    between atoms: _650  and  _651
REMARK  265  A    between atoms: _651  and  _652
REMARK  266  A    between atoms: _656  and  _658
REMARK  267  A    between atoms: _658  and  _659
REMARK  268  A    between atoms: _658  and  _661
REMARK  269  A    between atoms: _661  and  _662
REMARK  270  A    between atoms: _667  and  _669
REMARK  271  A    between atoms: _669  and  _670
REMARK  272  A    between atoms: _669  and  _672
REMARK  273  A    between atoms: _672  and  _673
REMARK  274  A    between atoms: _673  and  _674
REMARK  275  A    between atoms: _677  and  _679
REMARK  276  A    between atoms: _679  and  _680
REMARK  277  A    between atoms: _679  and  _682
REMARK  278  A    between atoms: _682  and  _683
REMARK  279  A    between atoms: _686  and  _688
REMARK  280  A    between atoms: _688  and  _689
REMARK  281  A    between atoms: _688  and  _691
REMARK  282  A    between atoms: _691  and  _692
REMARK                            x       y       z     vdW  Elec       q    Type
REMARK                         _______ _______ _______ _____ _____    ______ ____
ROOT
ATOM      1  CB  PHE A   1     -49.631  -5.958 -36.141  0.00  0.00    +0.051 C 
ENDROOT
BRANCH   1   2
ATOM      2  CG  PHE A   1     -50.831  -6.244 -35.289  0.00  0.00    -0.020 A 
ATOM      3  CD2 PHE A   1     -50.777  -7.222 -34.290  0.00  0.00    -0.004 A 
ATOM      4  CE2 PHE A   1     -51.897  -7.521 -33.516  0.00  0.00    -0.000 A 
ATOM      5  CZ  PHE A   1     -53.062  -6.861 -33.726  0.00  0.00    -0.000 A 
ATOM      6  CE1 PHE A   1     -53.135  -5.884 -34.718  0.00  0.00    -0.000 A 
ATOM      7  CD1 PHE A   1     -52.014  -5.587 -35.502  0.00  0.00    -0.004 A 
ENDBRANCH   1   2
BRANCH   1   8
ATOM      8  CA  PHE A   1     -48.948  -4.634 -35.832  0.00  0.00    +0.137 C 
BRANCH   8   9
ATOM      9  N   PHE A   1     -49.633  -3.517 -36.491  0.00  0.00    -0.239 NA
ATOM     10  H   PHE A   1     -49.591  -3.449 -37.528  0.00  0.00    +0.142 HD
ENDBRANCH   8   9
BRANCH   8  11
ATOM     11  C   PHE A   1     -47.525  -4.741 -36.302  0.00  0.00    +0.224 C 
ATOM     12  O   PHE A   1     -47.261  -4.743 -37.509  0.00  0.00    -0.287 OA
ENDBRANCH   8  11
ENDBRANCH   1   8
TORSDOF 4
REMARK  Name = ../refined-set-2016/2il2/2il2_pocket.pdb
REMARK  282 active torsions:
REMARK  status: ('A' for Active; 'I' for Inactive)
REMARK    1  A    between atoms: _1  and  _3
REMARK    2  A    between atoms: _3  and  _4
REMARK    3  A    between atoms: _3  and  _6
REMARK    4  A    between atoms: _6  and  _7
REMARK    5  A    between atoms: _10  and  _12
REMARK    6  A    between atoms: _12  and  _13
REMARK    7  A    between atoms: _12  and  _15
REMARK    8  A    between atoms: _15  and  _16
REMARK    9  A    between atoms: _19  and  _21
REMARK   10  A    between atoms: _21  and  _22
REMARK   11  A    between atoms: _21  and  _24
REMARK   12  A    between atoms: _24  and  _25
REMARK   13  A    between atoms: _30  and  _31
REMARK   14  A    between atoms: _33  and  _35
REMARK   15  A    between atoms: _35  and  _36
REMARK   16  A    between atoms: _35  and  _38
REMARK   17  A    between atoms: _38  and  _39
REMARK   18  A    between atoms: _42  and  _44
REMARK   19  A    between atoms: _44  and  _45
REMARK   20  A    between atoms: _44  and  _47
REMARK   21  A    between atoms: _47  and  _48
REMARK   22  A    between atoms: _51  and  _53
REMARK   23  A    between atoms: _53  and  _54
REMARK   24  A    between atoms: _53  and  _56
REMARK   25  A    between atoms: _56  and  _57
REMARK   26  A    between atoms: _57  and  _58
REMARK   27  A    between atoms: _63  and  _65
REMARK   28  A    between atoms: _65  and  _66
REMARK   29  A    between atoms: _65  and  _68
REMARK   30  A    between atoms: _68  and  _69
REMARK   31  A    between atoms: _74  and  _75
REMARK   32  A    between atoms: _77  and  _79
REMARK   33  A    between atoms: _79  and  _80
REMARK   34  A    between atoms: _79  and  _82
REMARK   35  A    between atoms: _82  and  _83
REMARK   36  A    between atoms: _88  and  _89
REMARK   37  A    between atoms: _91  and  _93
REMARK   38  A    between atoms: _93  and  _94
REMARK   39  A    between atoms: _93  and  _96
REMARK   40  A    between atoms: _99  and  _101
REMARK   41  A    between atoms: _101  and  _102
REMARK   42  A    between atoms: _101  and  _104
REMARK   43  A    between atoms: _107  and  _109
REMARK   44  A    between atoms: _109  and  _110
REMARK   45  A    between atoms: _109  and  _112
REMARK   46  A    between atoms: _112  and  _113
REMARK   47  A    between atoms: _119  and  _121
REMARK   48  A    between atoms: _121  and  _122
REMARK   49  A    between atoms: _121  and  _124
REMARK   50  A    between atoms: _124  and  _125
REMARK   51  A    between atoms: _128  and  _130
REMARK   52  A    between atoms: _130  and  _131
REMARK   53  A    between atoms: _130  and  _133
REMARK   54  A    between atoms: _133  and  _134
REMARK   55  A    between atoms: _137  and  _139
REMARK   56  A    between atoms: _139  and  _140
REMARK   57  A    between atoms: _142  and  _144
REMARK   58  A    between atoms: _144  and  _145
REMARK   59  A    between atoms: _144  and  _147
REMARK   60  A    between atoms: _147  and  _148
REMARK   61  A    between atoms: _150  and  _152
REMARK   62  A    between atoms: _152  and  _153
REMARK   63  A    between atoms: _152  and  _155
REMARK   64  A    between atoms: _155  and  _156
REMARK   65  A    between atoms: _158  and  _160
REMARK   66  A    between atoms: _160  and  _161
REMARK   67  A    between atoms: _160  and  _163
REMARK   68  A    between atoms: _163  and  _164
REMARK   69  A    between atoms: _174  and  _176
REMARK   70  A    between atoms: _176  and  _177
REMARK   71  A    between atoms: _176  and  _179
REMARK   72  A    between atoms: _179  and  _180
REMARK   73  A    between atoms: _180  and  _181
REMARK   74  A    between atoms: _181  and  _182
REMARK   75  A    between atoms: _191  and  _193
REMARK   76  A    between atoms: _193  and  _194
REMARK   77  A    between atoms: _193  and  _196
REMARK   78  A    between atoms: _196  and  _197
REMARK   79  A    between atoms: _202  and  _203
REMARK   80  A    between atoms: _205  and  _207
REMARK   81  A    between atoms: _207  and  _208
REMARK   82  A    between atoms: _207  and  _210
REMARK   83  A    between atoms: _210  and  _211
REMARK   84  A    between atoms: _213  and  _215
REMARK   85  A    between atoms: _215  and  _216
REMARK   86  A    between atoms: _215  and  _218
REMARK   87  A    between atoms: _218  and  _219
REMARK   88  A    between atoms: _222  and  _224
REMARK   89  A    between atoms: _224  and  _225
REMARK   90  A    between atoms: _227  and  _229
REMARK   91  A    between atoms: _229  and  _230
REMARK   92  A    between atoms: _229  and  _232
REMARK   93  A    between atoms: _232  and  _233
REMARK   94  A    between atoms: _236  and  _238
REMARK   95  A    between atoms: _238  and  _239
REMARK   96  A    between atoms: _238  and  _241
REMARK   97  A    between atoms: _244  and  _246
REMARK   98  A    between atoms: _246  and  _247
REMARK   99  A    between atoms: _250  and  _252
REMARK  100  A    between atoms: _252  and  _253
REMARK  101  A    between atoms: _252  and  _255
REMARK  102  A    between atoms: _255  and  _256
REMARK  103  A    between atoms: _260  and  _261
REMARK  104  A    between atoms: _266  and  _268
REMARK  105  A    between atoms: _268  and  _269
REMARK  106  A    between atoms: _268  and  _271
REMARK  107  A    between atoms: _271  and  _272
REMARK  108  A    between atoms: _278  and  _280
REMARK  109  A    between atoms: _280  and  _281
REMARK  110  A    between atoms: _280  and  _283
REMARK  111  A    between atoms: _283  and  _284
REMARK  112  A    between atoms: _284  and  _285
REMARK  113  A    between atoms: _287  and  _289
REMARK  114  A    between atoms: _289  and  _290
REMARK  115  A    between atoms: _289  and  _292
REMARK  116  A    between atoms: _292  and  _293
REMARK  117  A    between atoms: _296  and  _298
REMARK  118  A    between atoms: _298  and  _299
REMARK  119  A    between atoms: _302  and  _304
REMARK  120  A    between atoms: _304  and  _305
REMARK  121  A    between atoms: _304  and  _307
REMARK  122  A    between atoms: _307  and  _308
REMARK  123  A    between atoms: _308  and  _309
REMARK  124  A    between atoms: _312  and  _314
REMARK  125  A    between atoms: _314  and  _315
REMARK  126  A    between atoms: _314  and  _317
REMARK  127  A    between atoms: _317  and  _318
REMARK  128  A    between atoms: _324  and  _326
REMARK  129  A    between atoms: _326  and  _327
REMARK  130  A    between atoms: _329  and  _331
REMARK  131  A    between atoms: _331  and  _332
REMARK  132  A    between atoms: _331  and  _334
REMARK  133  A    between atoms: _337  and  _339
REMARK  134  A    between atoms: _339  and  _340
REMARK  135  A    between atoms: _339  and  _342
REMARK  136  A    between atoms: _345  and  _347
REMARK  137  A    between atoms: _347  and  _348
REMARK  138  A    between atoms: _350  and  _352
REMARK  139  A    between atoms: _352  and  _353
REMARK  140  A    between atoms: _352  and  _355
REMARK  141  A    between atoms: _355  and  _356
REMARK  142  A    between atoms: _356  and  _357
REMARK  143  A    between atoms: _359  and  _361
REMARK  144  A    between atoms: _361  and  _362
REMARK  145  A    between atoms: _361  and  _364
REMARK  146  A    between atoms: _364  and  _365
REMARK  147  A    between atoms: _371  and  _373
REMARK  148  A    between atoms: _373  and  _374
REMARK  149  A    between atoms: _373  and  _376
REMARK  150  A    between atoms: _376  and  _377
REMARK  151  A    between atoms: _382  and  _383
REMARK  152  A    between atoms: _385  and  _387
REMARK  153  A    between atoms: _387  and  _388
REMARK  154  A    between atoms: _387  and  _390
REMARK  155  A    between atoms: _390  and  _391
REMARK  156  A    between atoms: _394  and  _396
REMARK  157  A    between atoms: _396  and  _397
REMARK  158  A    between atoms: _396  and  _399
REMARK  159  A    between atoms: _402  and  _404
REMARK  160  A    between atoms: _404  and  _405
REMARK  161  A    between atoms: _404  and  _407
REMARK  162  A    between atoms: _407  and  _408
REMARK  163  A    between atoms: _411  and  _413
REMARK  164  A    between atoms: _413  and  _414
REMARK  165  A    between atoms: _413  and  _416
REMARK  166  A    between atoms: _416  and  _417
REMARK  167  A    between atoms: _420  and  _422
REMARK  168  A    between atoms: _422  and  _423
REMARK  169  A    between atoms: _425  and  _427
REMARK  170  A    between atoms: _427  and  _428
REMARK  171  A    between atoms: _431  and  _433
REMARK  172  A    between atoms: _433  and  _434
REMARK  173  A    between atoms: _433  and  _436
REMARK  174  A    between atoms: _436  and  _437
REMARK  175  A    between atoms: _439  and  _441
REMARK  176  A    between atoms: _441  and  _442
REMARK  177  A    between atoms: _441  and  _444
REMARK  178  A    between atoms: _444  and  _445
REMARK  179  A    between atoms: _450  and  _451
REMARK  180  A    between atoms: _453  and  _455
REMARK  181  A    between atoms: _455  and  _456
REMARK  182  A    between atoms: _455  and  _458
REMARK  183  A    between atoms: _458  and  _459
REMARK  184  A    between atoms: _462  and  _464
REMARK  185  A    between atoms: _464  and  _465
REMARK  186  A    between atoms: _464  and  _467
REMARK  187  A    between atoms: _467  and  _468
REMARK  188  A    between atoms: _470  and  _472
REMARK  189  A    between atoms: _472  and  _473
REMARK  190  A    between atoms: _475  and  _477
REMARK  191  A    between atoms: _477  and  _478
REMARK  192  A    between atoms: _477  and  _480
REMARK  193  A    between atoms: _480  and  _481
REMARK  194  A    between atoms: _481  and  _482
REMARK  195  A    between atoms: _482  and  _483
REMARK  196  A    between atoms: _483  and  _484
REMARK  197  A    between atoms: _488  and  _490
REMARK  198  A    between atoms: _490  and  _491
REMARK  199  A    between atoms: _490  and  _493
REMARK  200  A    between atoms: _493  and  _494
REMARK  201  A    between atoms: _500  and  _502
REMARK  202  A    between atoms: _502  and  _503
REMARK  203  A    between atoms: _502  and  _505
REMARK  204  A    between atoms: _505  and  _506
REMARK  205  A    between atoms: _509  and  _511
REMARK  206  A    between atoms: _511  and  _512
REMARK  207  A    between atoms: _511  and  _514
REMARK  208  A    between atoms: _514  and  _515
REMARK  209  A    between atoms: _520  and  _521
REMARK  210  A    between atoms: _523  and  _525
REMARK  211  A    between atoms: _525  and  _526
REMARK  212  A    between atoms: _529  and  _531
REMARK  213  A    between atoms: _531  and  _532
REMARK  214  A    between atoms: _531  and  _534
REMARK  215  A    between atoms: _534  and  _535
REMARK  216  A    between atoms: _538  and  _540
REMARK  217  A    between atoms: _540  and  _541
REMARK  218  A    between atoms: _540  and  _543
REMARK  219  A    between atoms: _543  and  _544
REMARK  220  A    between atoms: _549  and  _551
REMARK  221  A    between atoms: _551  and  _552
REMARK  222  A    between atoms: _555  and  _557
REMARK  223  A    between atoms: _557  and  _558
REMARK  224  A    between atoms: _557  and  _560
REMARK  225  A    between atoms: _560  and  _561
REMARK  226  A    between atoms: _561  and  _562
REMARK  227  A    between atoms: _564  and  _566
REMARK  228  A    between atoms: _566  and  _567
REMARK  229  A    between atoms: _566  and  _569
REMARK  230  A    between atoms: _569  and  _570
REMARK  231  A    between atoms: _573  and  _575
REMARK  232  A    between atoms: _575  and  _576
REMARK  233  A    between atoms: _575  and  _578
REMARK  234  A    between atoms: _578  and  _579
REMARK  235  A    between atoms: _582  and  _584
REMARK  236  A    between atoms: _584  and  _585
REMARK  237  A    between atoms: _588  and  _590
REMARK  238  A    between atoms: _590  and  _591
REMARK  239  A    between atoms: _590  and  _593
REMARK  240  A    between atoms: _593  and  _594
REMARK  241  A    between atoms: _597  and  _599
REMARK  242  A    between atoms: _599  and  _600
REMARK  243  A    between atoms: _602  and  _604
REMARK  244  A    between atoms: _604  and  _605
REMARK  245  A    between atoms: _608  and  _610
REMARK  246  A    between atoms: _610  and  _611
REMARK  247  A    between atoms: _610  and  _613
REMARK  248  A    between atoms: _613  and  _614
REMARK  249  A    between atoms: _617  and  _619
REMARK  250  A    between atoms: _619  and  _620
REMARK  251  A    between atoms: _619  and  _622
REMARK  252  A    between atoms: _622  and  _623
REMARK  253  A    between atoms: _626  and  _628
REMARK  254  A    between atoms: _628  and  _629
REMARK  255  A    between atoms: _628  and  _631
REMARK  256  A    between atoms: _631  and  _632
REMARK  257  A    between atoms: _632  and  _633
REMARK  258  A    between atoms: _633  and  _634
REMARK  259  A    between atoms: _643  and  _645
REMARK  260  A    between atoms: _645  and  _646
REMARK  261  A    between atoms: _645  and  _648
REMARK  262  A    between atoms: _648  and  _649
REMARK  263  A    between atoms: _649  and  _650
REMARK  264  A    between atoms: _650  and  _651
REMARK  265  A    between atoms: _651  and  _652
REMARK  266  A    between atoms: _656  and  _658
REMARK  267  A    between atoms: _658  and  _659
REMARK  268  A    between atoms: _658  and  _661
REMARK  269  A    between atoms: _661  and  _662
REMARK  270  A    between atoms: _667  and  _669
REMARK  271  A    between atoms: _669  and  _670
REMARK  272  A    between atoms: _669  and  _672
REMARK  273  A    between atoms: _672  and  _673
REMARK  274  A    between atoms: _673  and  _674
REMARK  275  A    between atoms: _677  and  _679
REMARK  276  A    between atoms: _679  and  _680
REMARK  277  A    between atoms: _679  and  _682
REMARK  278  A    between atoms: _682  and  _683
REMARK  279  A    between atoms: _686  and  _688
REMARK  280  A    between atoms: _688  and  _689
REMARK  281  A    between atoms: _688  and  _691
REMARK  282  A    between atoms: _691  and  _692
REMARK                            x       y       z     vdW  Elec       q    Type
REMARK                         _______ _______ _______ _____ _____    ______ ____
ROOT
ATOM      1  CG  TYR A   1     -46.387 -10.293 -34.911  0.00  0.00    -0.020 A 
ATOM      2  CD2 TYR A   1     -46.937  -9.530 -33.890  0.00  0.00    -0.001 A 
ATOM      3  CE2 TYR A   1     -48.219  -9.773 -33.418  0.00  0.00    +0.036 A 
ATOM      4  CZ  TYR A   1     -48.996 -10.769 -33.975  0.00  0.00    +0.134 A 
ATOM      5  CE1 TYR A   1     -48.489 -11.536 -35.009  0.00  0.00    +0.036 A 
ATOM      6  CD1 TYR A   1     -47.196 -11.294 -35.474  0.00  0.00    -0.001 A 
ENDROOT
BRANCH   4   7
ATOM      7  OH  TYR A   1     -50.273 -10.966 -33.462  0.00  0.00    -0.506 OA
ATOM      8  HH  TYR A   1     -50.713 -11.705 -33.951  0.00  0.00    +0.292 HD
ENDBRANCH   4   7
BRANCH   1   9
ATOM      9  CB  TYR A   1     -44.980 -10.053 -35.423  0.00  0.00    +0.051 C 
BRANCH   9  10
ATOM     10  CA  TYR A   1     -44.195  -8.861 -34.840  0.00  0.00    +0.137 C 
BRANCH  10  11
ATOM     11  N   TYR A   1     -44.598  -7.590 -35.457  0.00  0.00    -0.239 NA
ATOM     12  H   TYR A   1     -44.492  -7.488 -36.487  0.00  0.00    +0.142 HD
ENDBRANCH  10  11
BRANCH  10  13
ATOM     13  C   TYR A   1     -42.719  -9.082 -35.117  0.00  0.00    +0.224 C 
ATOM     14  O   TYR A   1     -42.280  -9.115 -36.272  0.00  0.00    -0.287 OA
ENDBRANCH  10  13
ENDBRANCH   9  10
ENDBRANCH   1   9
TORSDOF 5
REMARK  Name = ../refined-set-2016/2il2/2il2_pocket.pdb
REMARK  282 active torsions:
REMARK  status: ('A' for Active; 'I' for Inactive)
REMARK    1  A    between atoms: _1  and  _3
REMARK    2  A    between atoms: _3  and  _4
REMARK    3  A    between atoms: _3  and  _6
REMARK    4  A    between atoms: _6  and  _7
REMARK    5  A    between atoms: _10  and  _12
REMARK    6  A    between atoms: _12  and  _13
REMARK    7  A    between atoms: _12  and  _15
REMARK    8  A    between atoms: _15  and  _16
REMARK    9  A    between atoms: _19  and  _21
REMARK   10  A    between atoms: _21  and  _22
REMARK   11  A    between atoms: _21  and  _24
REMARK   12  A    between atoms: _24  and  _25
REMARK   13  A    between atoms: _30  and  _31
REMARK   14  A    between atoms: _33  and  _35
REMARK   15  A    between atoms: _35  and  _36
REMARK   16  A    between atoms: _35  and  _38
REMARK   17  A    between atoms: _38  and  _39
REMARK   18  A    between atoms: _42  and  _44
REMARK   19  A    between atoms: _44  and  _45
REMARK   20  A    between atoms: _44  and  _47
REMARK   21  A    between atoms: _47  and  _48
REMARK   22  A    between atoms: _51  and  _53
REMARK   23  A    between atoms: _53  and  _54
REMARK   24  A    between atoms: _53  and  _56
REMARK   25  A    between atoms: _56  and  _57
REMARK   26  A    between atoms: _57  and  _58
REMARK   27  A    between atoms: _63  and  _65
REMARK   28  A    between atoms: _65  and  _66
REMARK   29  A    between atoms: _65  and  _68
REMARK   30  A    between atoms: _68  and  _69
REMARK   31  A    between atoms: _74  and  _75
REMARK   32  A    between atoms: _77  and  _79
REMARK   33  A    between atoms: _79  and  _80
REMARK   34  A    between atoms: _79  and  _82
REMARK   35  A    between atoms: _82  and  _83
REMARK   36  A    between atoms: _88  and  _89
REMARK   37  A    between atoms: _91  and  _93
REMARK   38  A    between atoms: _93  and  _94
REMARK   39  A    between atoms: _93  and  _96
REMARK   40  A    between atoms: _99  and  _101
REMARK   41  A    between atoms: _101  and  _102
REMARK   42  A    between atoms: _101  and  _104
REMARK   43  A    between atoms: _107  and  _109
REMARK   44  A    between atoms: _109  and  _110
REMARK   45  A    between atoms: _109  and  _112
REMARK   46  A    between atoms: _112  and  _113
REMARK   47  A    between atoms: _119  and  _121
REMARK   48  A    between atoms: _121  and  _122
REMARK   49  A    between atoms: _121  and  _124
REMARK   50  A    between atoms: _124  and  _125
REMARK   51  A    between atoms: _128  and  _130
REMARK   52  A    between atoms: _130  and  _131
REMARK   53  A    between atoms: _130  and  _133
REMARK   54  A    between atoms: _133  and  _134
REMARK   55  A    between atoms: _137  and  _139
REMARK   56  A    between atoms: _139  and  _140
REMARK   57  A    between atoms: _142  and  _144
REMARK   58  A    between atoms: _144  and  _145
REMARK   59  A    between atoms: _144  and  _147
REMARK   60  A    between atoms: _147  and  _148
REMARK   61  A    between atoms: _150  and  _152
REMARK   62  A    between atoms: _152  and  _153
REMARK   63  A    between atoms: _152  and  _155
REMARK   64  A    between atoms: _155  and  _156
REMARK   65  A    between atoms: _158  and  _160
REMARK   66  A    between atoms: _160  and  _161
REMARK   67  A    between atoms: _160  and  _163
REMARK   68  A    between atoms: _163  and  _164
REMARK   69  A    between atoms: _174  and  _176
REMARK   70  A    between atoms: _176  and  _177
REMARK   71  A    between atoms: _176  and  _179
REMARK   72  A    between atoms: _179  and  _180
REMARK   73  A    between atoms: _180  and  _181
REMARK   74  A    between atoms: _181  and  _182
REMARK   75  A    between atoms: _191  and  _193
REMARK   76  A    between atoms: _193  and  _194
REMARK   77  A    between atoms: _193  and  _196
REMARK   78  A    between atoms: _196  and  _197
REMARK   79  A    between atoms: _202  and  _203
REMARK   80  A    between atoms: _205  and  _207
REMARK   81  A    between atoms: _207  and  _208
REMARK   82  A    between atoms: _207  and  _210
REMARK   83  A    between atoms: _210  and  _211
REMARK   84  A    between atoms: _213  and  _215
REMARK   85  A    between atoms: _215  and  _216
REMARK   86  A    between atoms: _215  and  _218
REMARK   87  A    between atoms: _218  and  _219
REMARK   88  A    between atoms: _222  and  _224
REMARK   89  A    between atoms: _224  and  _225
REMARK   90  A    between atoms: _227  and  _229
REMARK   91  A    between atoms: _229  and  _230
REMARK   92  A    between atoms: _229  and  _232
REMARK   93  A    between atoms: _232  and  _233
REMARK   94  A    between atoms: _236  and  _238
REMARK   95  A    between atoms: _238  and  _239
REMARK   96  A    between atoms: _238  and  _241
REMARK   97  A    between atoms: _244  and  _246
REMARK   98  A    between atoms: _246  and  _247
REMARK   99  A    between atoms: _250  and  _252
REMARK  100  A    between atoms: _252  and  _253
REMARK  101  A    between atoms: _252  and  _255
REMARK  102  A    between atoms: _255  and  _256
REMARK  103  A    between atoms: _260  and  _261
REMARK  104  A    between atoms: _266  and  _268
REMARK  105  A    between atoms: _268  and  _269
REMARK  106  A    between atoms: _268  and  _271
REMARK  107  A    between atoms: _271  and  _272
REMARK  108  A    between atoms: _278  and  _280
REMARK  109  A    between atoms: _280  and  _281
REMARK  110  A    between atoms: _280  and  _283
REMARK  111  A    between atoms: _283  and  _284
REMARK  112  A    between atoms: _284  and  _285
REMARK  113  A    between atoms: _287  and  _289
REMARK  114  A    between atoms: _289  and  _290
REMARK  115  A    between atoms: _289  and  _292
REMARK  116  A    between atoms: _292  and  _293
REMARK  117  A    between atoms: _296  and  _298
REMARK  118  A    between atoms: _298  and  _299
REMARK  119  A    between atoms: _302  and  _304
REMARK  120  A    between atoms: _304  and  _305
REMARK  121  A    between atoms: _304  and  _307
REMARK  122  A    between atoms: _307  and  _308
REMARK  123  A    between atoms: _308  and  _309
REMARK  124  A    between atoms: _312  and  _314
REMARK  125  A    between atoms: _314  and  _315
REMARK  126  A    between atoms: _314  and  _317
REMARK  127  A    between atoms: _317  and  _318
REMARK  128  A    between atoms: _324  and  _326
REMARK  129  A    between atoms: _326  and  _327
REMARK  130  A    between atoms: _329  and  _331
REMARK  131  A    between atoms: _331  and  _332
REMARK  132  A    between atoms: _331  and  _334
REMARK  133  A    between atoms: _337  and  _339
REMARK  134  A    between atoms: _339  and  _340
REMARK  135  A    between atoms: _339  and  _342
REMARK  136  A    between atoms: _345  and  _347
REMARK  137  A    between atoms: _347  and  _348
REMARK  138  A    between atoms: _350  and  _352
REMARK  139  A    between atoms: _352  and  _353
REMARK  140  A    between atoms: _352  and  _355
REMARK  141  A    between atoms: _355  and  _356
REMARK  142  A    between atoms: _356  and  _357
REMARK  143  A    between atoms: _359  and  _361
REMARK  144  A    between atoms: _361  and  _362
REMARK  145  A    between atoms: _361  and  _364
REMARK  146  A    between atoms: _364  and  _365
REMARK  147  A    between atoms: _371  and  _373
REMARK  148  A    between atoms: _373  and  _374
REMARK  149  A    between atoms: _373  and  _376
REMARK  150  A    between atoms: _376  and  _377
REMARK  151  A    between atoms: _382  and  _383
REMARK  152  A    between atoms: _385  and  _387
REMARK  153  A    between atoms: _387  and  _388
REMARK  154  A    between atoms: _387  and  _390
REMARK  155  A    between atoms: _390  and  _391
REMARK  156  A    between atoms: _394  and  _396
REMARK  157  A    between atoms: _396  and  _397
REMARK  158  A    between atoms: _396  and  _399
REMARK  159  A    between atoms: _402  and  _404
REMARK  160  A    between atoms: _404  and  _405
REMARK  161  A    between atoms: _404  and  _407
REMARK  162  A    between atoms: _407  and  _408
REMARK  163  A    between atoms: _411  and  _413
REMARK  164  A    between atoms: _413  and  _414
REMARK  165  A    between atoms: _413  and  _416
REMARK  166  A    between atoms: _416  and  _417
REMARK  167  A    between atoms: _420  and  _422
REMARK  168  A    between atoms: _422  and  _423
REMARK  169  A    between atoms: _425  and  _427
REMARK  170  A    between atoms: _427  and  _428
REMARK  171  A    between atoms: _431  and  _433
REMARK  172  A    between atoms: _433  and  _434
REMARK  173  A    between atoms: _433  and  _436
REMARK  174  A    between atoms: _436  and  _437
REMARK  175  A    between atoms: _439  and  _441
REMARK  176  A    between atoms: _441  and  _442
REMARK  177  A    between atoms: _441  and  _444
REMARK  178  A    between atoms: _444  and  _445
REMARK  179  A    between atoms: _450  and  _451
REMARK  180  A    between atoms: _453  and  _455
REMARK  181  A    between atoms: _455  and  _456
REMARK  182  A    between atoms: _455  and  _458
REMARK  183  A    between atoms: _458  and  _459
REMARK  184  A    between atoms: _462  and  _464
REMARK  185  A    between atoms: _464  and  _465
REMARK  186  A    between atoms: _464  and  _467
REMARK  187  A    between atoms: _467  and  _468
REMARK  188  A    between atoms: _470  and  _472
REMARK  189  A    between atoms: _472  and  _473
REMARK  190  A    between atoms: _475  and  _477
REMARK  191  A    between atoms: _477  and  _478
REMARK  192  A    between atoms: _477  and  _480
REMARK  193  A    between atoms: _480  and  _481
REMARK  194  A    between atoms: _481  and  _482
REMARK  195  A    between atoms: _482  and  _483
REMARK  196  A    between atoms: _483  and  _484
REMARK  197  A    between atoms: _488  and  _490
REMARK  198  A    between atoms: _490  and  _491
REMARK  199  A    between atoms: _490  and  _493
REMARK  200  A    between atoms: _493  and  _494
REMARK  201  A    between atoms: _500  and  _502
REMARK  202  A    between atoms: _502  and  _503
REMARK  203  A    between atoms: _502  and  _505
REMARK  204  A    between atoms: _505  and  _506
REMARK  205  A    between atoms: _509  and  _511
REMARK  206  A    between atoms: _511  and  _512
REMARK  207  A    between atoms: _511  and  _514
REMARK  208  A    between atoms: _514  and  _515
REMARK  209  A    between atoms: _520  and  _521
REMARK  210  A    between atoms: _523  and  _525
REMARK  211  A    between atoms: _525  and  _526
REMARK  212  A    between atoms: _529  and  _531
REMARK  213  A    between atoms: _531  and  _532
REMARK  214  A    between atoms: _531  and  _534
REMARK  215  A    between atoms: _534  and  _535
REMARK  216  A    between atoms: _538  and  _540
REMARK  217  A    between atoms: _540  and  _541
REMARK  218  A    between atoms: _540  and  _543
REMARK  219  A    between atoms: _543  and  _544
REMARK  220  A    between atoms: _549  and  _551
REMARK  221  A    between atoms: _551  and  _552
REMARK  222  A    between atoms: _555  and  _557
REMARK  223  A    between atoms: _557  and  _558
REMARK  224  A    between atoms: _557  and  _560
REMARK  225  A    between atoms: _560  and  _561
REMARK  226  A    between atoms: _561  and  _562
REMARK  227  A    between atoms: _564  and  _566
REMARK  228  A    between atoms: _566  and  _567
REMARK  229  A    between atoms: _566  and  _569
REMARK  230  A    between atoms: _569  and  _570
REMARK  231  A    between atoms: _573  and  _575
REMARK  232  A    between atoms: _575  and  _576
REMARK  233  A    between atoms: _575  and  _578
REMARK  234  A    between atoms: _578  and  _579
REMARK  235  A    between atoms: _582  and  _584
REMARK  236  A    between atoms: _584  and  _585
REMARK  237  A    between atoms: _588  and  _590
REMARK  238  A    between atoms: _590  and  _591
REMARK  239  A    between atoms: _590  and  _593
REMARK  240  A    between atoms: _593  and  _594
REMARK  241  A    between atoms: _597  and  _599
REMARK  242  A    between atoms: _599  and  _600
REMARK  243  A    between atoms: _602  and  _604
REMARK  244  A    between atoms: _604  and  _605
REMARK  245  A    between atoms: _608  and  _610
REMARK  246  A    between atoms: _610  and  _611
REMARK  247  A    between atoms: _610  and  _613
REMARK  248  A    between atoms: _613  and  _614
REMARK  249  A    between atoms: _617  and  _619
REMARK  250  A    between atoms: _619  and  _620
REMARK  251  A    between atoms: _619  and  _622
REMARK  252  A    between atoms: _622  and  _623
REMARK  253  A    between atoms: _626  and  _628
REMARK  254  A    between atoms: _628  and  _629
REMARK  255  A    between atoms: _628  and  _631
REMARK  256  A    between atoms: _631  and  _632
REMARK  257  A    between atoms: _632  and  _633
REMARK  258  A    between atoms: _633  and  _634
REMARK  259  A    between atoms: _643  and  _645
REMARK  260  A    between atoms: _645  and  _646
REMARK  261  A    between atoms: _645  and  _648
REMARK  262  A    between atoms: _648  and  _649
REMARK  263  A    between atoms: _649  and  _650
REMARK  264  A    between atoms: _650  and  _651
REMARK  265  A    between atoms: _651  and  _652
REMARK  266  A    between atoms: _656  and  _658
REMARK  267  A    between atoms: _658  and  _659
REMARK  268  A    between atoms: _658  and  _661
REMARK  269  A    between atoms: _661  and  _662
REMARK  270  A    between atoms: _667  and  _669
REMARK  271  A    between atoms: _669  and  _670
REMARK  272  A    between atoms: _669  and  _672
REMARK  273  A    between atoms: _672  and  _673
REMARK  274  A    between atoms: _673  and  _674
REMARK  275  A    between atoms: _677  and  _679
REMARK  276  A    between atoms: _679  and  _680
REMARK  277  A    between atoms: _679  and  _682
REMARK  278  A    between atoms: _682  and  _683
REMARK  279  A    between atoms: _686  and  _688
REMARK  280  A    between atoms: _688  and  _689
REMARK  281  A    between atoms: _688  and  _691
REMARK  282  A    between atoms: _691  and  _692
REMARK                            x       y       z     vdW  Elec       q    Type
REMARK                         _______ _______ _______ _____ _____    ______ ____
ROOT
ATOM      1  C   ALA A   6     -51.106 -17.122 -36.468  0.00  0.00    +0.241 C 
ATOM      2  N   SER A   7     -50.490 -18.223 -36.036  0.00  0.00    -0.295 N 
ATOM      3  H   SER A   7     -51.061 -19.032 -35.716  0.00  0.00    +0.150 HD
ATOM      4  O   ALA A   6     -50.497 -16.137 -36.857  0.00  0.00    -0.273 OA
ENDROOT
BRANCH   1   5
ATOM      5  CA  ALA A   6     -52.621 -17.124 -36.474  0.00  0.00    +0.149 C 
ATOM      6  CB  ALA A   6     -53.129 -17.309 -37.927  0.00  0.00    +0.031 C 
BRANCH   5   9
ATOM      7  C   GLY A   5     -53.719 -15.766 -34.701  0.00  0.00    +0.243 C 
ATOM      8  O   GLY A   5     -53.882 -16.736 -33.976  0.00  0.00    -0.273 OA
ATOM      9  N   ALA A   6     -53.147 -15.858 -35.902  0.00  0.00    -0.297 N 
ATOM     10  H   ALA A   6     -53.064 -14.992 -36.472  0.00  0.00    +0.150 HD
BRANCH   7  11
ATOM     11  CA  GLY A   5     -54.171 -14.381 -34.226  0.00  0.00    +0.176 C 
BRANCH  11  14
ATOM     12  C   THR A   4     -52.901 -12.525 -35.258  0.00  0.00    +0.243 C 
ATOM     13  O   THR A   4     -51.971 -12.653 -34.460  0.00  0.00    -0.273 OA
ATOM     14  N   GLY A   5     -54.020 -13.252 -35.182  0.00  0.00    -0.295 N 
ATOM     15  H   GLY A   5     -54.813 -13.020 -35.814  0.00  0.00    +0.150 HD
BRANCH  12  16
ATOM     16  CA  THR A   4     -52.793 -11.498 -36.389  0.00  0.00    +0.176 C 
BRANCH  16  18
ATOM     17  C   ASP A   3     -53.704 -12.733 -38.267  0.00  0.00    +0.241 C 
ATOM     18  N   THR A   4     -53.773 -11.709 -37.429  0.00  0.00    -0.295 N 
ATOM     19  H   THR A   4     -54.559 -11.035 -37.523  0.00  0.00    +0.150 HD
ATOM     20  O   ASP A   3     -52.817 -13.588 -38.218  0.00  0.00    -0.273 OA
BRANCH  17  21
ATOM     21  CA  ASP A   3     -54.825 -12.808 -39.290  0.00  0.00    +0.160 C 
BRANCH  21  24
ATOM     22  C   VAL A   2     -55.034 -11.261 -41.172  0.00  0.00    +0.241 C 
ATOM     23  O   VAL A   2     -55.786 -10.502 -40.581  0.00  0.00    -0.273 OA
ATOM     24  N   ASP A   3     -54.412 -12.271 -40.583  0.00  0.00    -0.297 N 
ATOM     25  H   ASP A   3     -53.595 -12.700 -41.062  0.00  0.00    +0.150 HD
BRANCH  22  26
ATOM     26  CA  VAL A   2     -54.773 -11.125 -42.663  0.00  0.00    +0.148 C 
BRANCH  26  28
ATOM     27  C   LEU A   1     -55.992 -12.809 -43.951  0.00  0.00    +0.238 C 
ATOM     28  N   VAL A   2     -55.968 -11.611 -43.359  0.00  0.00    -0.297 N 
ATOM     29  H   VAL A   2     -56.816 -11.010 -43.393  0.00  0.00    +0.150 HD
ATOM     30  O   LEU A   1     -54.972 -13.490 -44.129  0.00  0.00    -0.274 OA
BRANCH  27  31
ATOM     31  CA  LEU A   1     -57.325 -13.302 -44.505  0.00  0.00    +0.145 C 
BRANCH  31  32
ATOM     32  N   LEU A   1     -57.025 -13.880 -45.807  0.00  0.00    -0.238 NA
ATOM     33  H   LEU A   1     -56.980 -14.916 -45.883  0.00  0.00    +0.142 HD
ENDBRANCH  31  32
BRANCH  31  34
ATOM     34  CB  LEU A   1     -57.922 -14.397 -43.611  0.00  0.00    +0.026 C 
BRANCH  34  35
ATOM     35  CG  LEU A   1     -58.769 -14.068 -42.384  0.00  0.00    +0.002 C 
ATOM     36  CD2 LEU A   1     -58.925 -15.356 -41.503  0.00  0.00    +0.000 C 
ATOM     37  CD1 LEU A   1     -60.149 -13.520 -42.767  0.00  0.00    +0.000 C 
ENDBRANCH  34  35
ENDBRANCH  31  34
ENDBRANCH  27  31
ENDBRANCH  26  28
BRANCH  26  38
ATOM     38  CB  VAL A   2     -54.345  -9.675 -43.060  0.00  0.00    +0.027 C 
ATOM     39  CG2 VAL A   2     -52.963  -9.346 -42.453  0.00  0.00    +0.002 C 
ATOM     40  CG1 VAL A   2     -54.310  -9.499 -44.596  0.00  0.00    +0.002 C 
ENDBRANCH  26  38
ENDBRANCH  22  26
ENDBRANCH  21  24
BRANCH  21  41
ATOM     41  CB  ASP A   3     -55.266 -14.251 -39.447  0.00  0.00    +0.143 C 
BRANCH  41  42
ATOM     42  CG  ASP A   3     -56.063 -14.757 -38.249  0.00  0.00    +0.367 C 
ATOM     43  OD2 ASP A   3     -56.144 -14.055 -37.220  0.00  0.00    -0.246 OA
ATOM     44  OD1 ASP A   3     -56.612 -15.875 -38.350  0.00  0.00    -0.246 OA
ENDBRANCH  41  42
ENDBRANCH  21  41
ENDBRANCH  17  21
ENDBRANCH  16  18
BRANCH  16  45
ATOM     45  CB  THR A   4     -52.908 -10.070 -35.797  0.00  0.00    +0.137 C 
ATOM     46  CG2 THR A   4     -52.816  -9.011 -36.885  0.00  0.00    +0.034 C 
BRANCH  45  47
ATOM     47  OG1 THR A   4     -54.141  -9.941 -35.100  0.00  0.00    -0.382 OA
ATOM     48  HG1 THR A   4     -54.175 -10.606 -34.367  0.00  0.00    +0.210 HD
ENDBRANCH  45  47
ENDBRANCH  16  45
ENDBRANCH  12  16
ENDBRANCH  11  14
ENDBRANCH   7  11
ENDBRANCH   5   9
ENDBRANCH   1   5
BRANCH   2  49
ATOM     49  CA  SER A   7     -49.022 -18.321 -36.001  0.00  0.00    +0.178 C 
BRANCH  49  50
ATOM     50  C   SER A   7     -48.369 -18.292 -37.393  0.00  0.00    +0.243 C 
ATOM     51  O   SER A   7     -47.262 -17.778 -37.578  0.00  0.00    -0.273 OA
ATOM     52  N   TYR A   8     -49.060 -18.873 -38.364  0.00  0.00    -0.297 N 
ATOM     53  H   TYR A   8     -50.071 -19.070 -38.217  0.00  0.00    +0.150 HD
BRANCH  52  54
ATOM     54  CA  TYR A   8     -48.444 -19.243 -39.628  0.00  0.00    +0.153 C 
BRANCH  54  55
ATOM     55  C   TYR A   8     -49.108 -18.583 -40.828  0.00  0.00    +0.241 C 
ATOM     56  O   TYR A   8     -50.139 -17.891 -40.713  0.00  0.00    -0.273 OA
ATOM     57  N   ILE A   9     -48.479 -18.772 -41.983  0.00  0.00    -0.297 N 
ATOM     58  H   ILE A   9     -47.479 -19.057 -41.981  0.00  0.00    +0.150 HD
BRANCH  57  59
ATOM     59  CA  ILE A   9     -49.165 -18.587 -43.244  0.00  0.00    +0.149 C 
BRANCH  59  60
ATOM     60  C   ILE A   9     -49.899 -19.897 -43.474  0.00  0.00    +0.241 C 
ATOM     61  O   ILE A   9     -49.310 -20.957 -43.336  0.00  0.00    -0.273 OA
ATOM     62  N   SER A  10     -51.189 -19.839 -43.793  0.00  0.00    -0.295 N 
ATOM     63  H   SER A  10     -51.679 -18.922 -43.825  0.00  0.00    +0.150 HD
BRANCH  62  64
ATOM     64  CA  SER A  10     -51.915 -21.072 -44.099  0.00  0.00    +0.178 C 
BRANCH  64  65
ATOM     65  C   SER A  10     -52.614 -21.050 -45.444  0.00  0.00    +0.243 C 
ATOM     66  O   SER A  10     -52.965 -19.994 -45.971  0.00  0.00    -0.273 OA
ATOM     67  N   GLY A  11     -52.748 -22.237 -46.026  0.00  0.00    -0.296 N 
ATOM     68  H   GLY A  11     -52.268 -23.059 -45.607  0.00  0.00    +0.150 HD
BRANCH  67  69
ATOM     69  CA  GLY A  11     -53.548 -22.426 -47.236  0.00  0.00    +0.163 C 
BRANCH  69  70
ATOM     70  C   GLY A  11     -54.449 -23.625 -47.065  0.00  0.00    +0.229 C 
ATOM     71  O   GLY A  11     -54.355 -24.348 -46.070  0.00  0.00    -0.286 OA
ENDBRANCH  69  70
ENDBRANCH  67  69
ENDBRANCH  64  65
BRANCH  64  72
ATOM     72  CB  SER A  10     -52.863 -21.494 -42.967  0.00  0.00    +0.166 C 
BRANCH  72  73
ATOM     73  OG  SER A  10     -53.916 -20.587 -42.704  0.00  0.00    -0.380 OA
ATOM     74  H   SER A  10     -54.474 -20.936 -41.965  0.00  0.00    +0.211 HD
ENDBRANCH  72  73
ENDBRANCH  64  72
ENDBRANCH  62  64
ENDBRANCH  59  60
BRANCH  59  75
ATOM     75  CB  ILE A   9     -48.204 -18.299 -44.431  0.00  0.00    +0.027 C 
ATOM     76  CG2 ILE A   9     -48.943 -18.486 -45.771  0.00  0.00    +0.002 C 
BRANCH  75  77
ATOM     77  CG1 ILE A   9     -47.672 -16.871 -44.352  0.00  0.00    +0.002 C 
ATOM     78  CD1 ILE A   9     -46.529 -16.585 -45.299  0.00  0.00    +0.000 C 
ENDBRANCH  75  77
ENDBRANCH  59  75
ENDBRANCH  57  59
ENDBRANCH  54  55
BRANCH  54  79
ATOM     79  CB  TYR A   8     -48.503 -20.767 -39.796  0.00  0.00    +0.055 C 
BRANCH  79  80
ATOM     80  CG  TYR A   8     -47.933 -21.550 -38.626  0.00  0.00    -0.020 A 
ATOM     81  CD2 TYR A   8     -48.715 -22.458 -37.919  0.00  0.00    -0.001 A 
ATOM     82  CE2 TYR A   8     -48.187 -23.186 -36.856  0.00  0.00    +0.036 A 
ATOM     83  CZ  TYR A   8     -46.864 -22.988 -36.477  0.00  0.00    +0.134 A 
ATOM     84  CE1 TYR A   8     -46.077 -22.088 -37.149  0.00  0.00    +0.036 A 
ATOM     85  CD1 TYR A   8     -46.610 -21.380 -38.226  0.00  0.00    -0.001 A 
BRANCH  83  86
ATOM     86  OH  TYR A   8     -46.330 -23.689 -35.418  0.00  0.00    -0.506 OA
ATOM     87  HH  TYR A   8     -47.019 -24.293 -35.042  0.00  0.00    +0.292 HD
ENDBRANCH  83  86
ENDBRANCH  79  80
ENDBRANCH  54  79
ENDBRANCH  52  54
ENDBRANCH  49  50
BRANCH  49  88
ATOM     88  CB  SER A   7     -48.579 -19.607 -35.298  0.00  0.00    +0.166 C 
BRANCH  88  89
ATOM     89  OG  SER A   7     -49.227 -19.817 -34.063  0.00  0.00    -0.380 OA
ATOM     90  H   SER A   7     -49.030 -19.061 -33.455  0.00  0.00    +0.211 HD
ENDBRANCH  88  89
ENDBRANCH  49  88
ENDBRANCH   2  49
TORSDOF 38
REMARK  Name = ../refined-set-2016/2il2/2il2_pocket.pdb
REMARK  282 active torsions:
REMARK  status: ('A' for Active; 'I' for Inactive)
REMARK    1  A    between atoms: _1  and  _3
REMARK    2  A    between atoms: _3  and  _4
REMARK    3  A    between atoms: _3  and  _6
REMARK    4  A    between atoms: _6  and  _7
REMARK    5  A    between atoms: _10  and  _12
REMARK    6  A    between atoms: _12  and  _13
REMARK    7  A    between atoms: _12  and  _15
REMARK    8  A    between atoms: _15  and  _16
REMARK    9  A    between atoms: _19  and  _21
REMARK   10  A    between atoms: _21  and  _22
REMARK   11  A    between atoms: _21  and  _24
REMARK   12  A    between atoms: _24  and  _25
REMARK   13  A    between atoms: _30  and  _31
REMARK   14  A    between atoms: _33  and  _35
REMARK   15  A    between atoms: _35  and  _36
REMARK   16  A    between atoms: _35  and  _38
REMARK   17  A    between atoms: _38  and  _39
REMARK   18  A    between atoms: _42  and  _44
REMARK   19  A    between atoms: _44  and  _45
REMARK   20  A    between atoms: _44  and  _47
REMARK   21  A    between atoms: _47  and  _48
REMARK   22  A    between atoms: _51  and  _53
REMARK   23  A    between atoms: _53  and  _54
REMARK   24  A    between atoms: _53  and  _56
REMARK   25  A    between atoms: _56  and  _57
REMARK   26  A    between atoms: _57  and  _58
REMARK   27  A    between atoms: _63  and  _65
REMARK   28  A    between atoms: _65  and  _66
REMARK   29  A    between atoms: _65  and  _68
REMARK   30  A    between atoms: _68  and  _69
REMARK   31  A    between atoms: _74  and  _75
REMARK   32  A    between atoms: _77  and  _79
REMARK   33  A    between atoms: _79  and  _80
REMARK   34  A    between atoms: _79  and  _82
REMARK   35  A    between atoms: _82  and  _83
REMARK   36  A    between atoms: _88  and  _89
REMARK   37  A    between atoms: _91  and  _93
REMARK   38  A    between atoms: _93  and  _94
REMARK   39  A    between atoms: _93  and  _96
REMARK   40  A    between atoms: _99  and  _101
REMARK   41  A    between atoms: _101  and  _102
REMARK   42  A    between atoms: _101  and  _104
REMARK   43  A    between atoms: _107  and  _109
REMARK   44  A    between atoms: _109  and  _110
REMARK   45  A    between atoms: _109  and  _112
REMARK   46  A    between atoms: _112  and  _113
REMARK   47  A    between atoms: _119  and  _121
REMARK   48  A    between atoms: _121  and  _122
REMARK   49  A    between atoms: _121  and  _124
REMARK   50  A    between atoms: _124  and  _125
REMARK   51  A    between atoms: _128  and  _130
REMARK   52  A    between atoms: _130  and  _131
REMARK   53  A    between atoms: _130  and  _133
REMARK   54  A    between atoms: _133  and  _134
REMARK   55  A    between atoms: _137  and  _139
REMARK   56  A    between atoms: _139  and  _140
REMARK   57  A    between atoms: _142  and  _144
REMARK   58  A    between atoms: _144  and  _145
REMARK   59  A    between atoms: _144  and  _147
REMARK   60  A    between atoms: _147  and  _148
REMARK   61  A    between atoms: _150  and  _152
REMARK   62  A    between atoms: _152  and  _153
REMARK   63  A    between atoms: _152  and  _155
REMARK   64  A    between atoms: _155  and  _156
REMARK   65  A    between atoms: _158  and  _160
REMARK   66  A    between atoms: _160  and  _161
REMARK   67  A    between atoms: _160  and  _163
REMARK   68  A    between atoms: _163  and  _164
REMARK   69  A    between atoms: _174  and  _176
REMARK   70  A    between atoms: _176  and  _177
REMARK   71  A    between atoms: _176  and  _179
REMARK   72  A    between atoms: _179  and  _180
REMARK   73  A    between atoms: _180  and  _181
REMARK   74  A    between atoms: _181  and  _182
REMARK   75  A    between atoms: _191  and  _193
REMARK   76  A    between atoms: _193  and  _194
REMARK   77  A    between atoms: _193  and  _196
REMARK   78  A    between atoms: _196  and  _197
REMARK   79  A    between atoms: _202  and  _203
REMARK   80  A    between atoms: _205  and  _207
REMARK   81  A    between atoms: _207  and  _208
REMARK   82  A    between atoms: _207  and  _210
REMARK   83  A    between atoms: _210  and  _211
REMARK   84  A    between atoms: _213  and  _215
REMARK   85  A    between atoms: _215  and  _216
REMARK   86  A    between atoms: _215  and  _218
REMARK   87  A    between atoms: _218  and  _219
REMARK   88  A    between atoms: _222  and  _224
REMARK   89  A    between atoms: _224  and  _225
REMARK   90  A    between atoms: _227  and  _229
REMARK   91  A    between atoms: _229  and  _230
REMARK   92  A    between atoms: _229  and  _232
REMARK   93  A    between atoms: _232  and  _233
REMARK   94  A    between atoms: _236  and  _238
REMARK   95  A    between atoms: _238  and  _239
REMARK   96  A    between atoms: _238  and  _241
REMARK   97  A    between atoms: _244  and  _246
REMARK   98  A    between atoms: _246  and  _247
REMARK   99  A    between atoms: _250  and  _252
REMARK  100  A    between atoms: _252  and  _253
REMARK  101  A    between atoms: _252  and  _255
REMARK  102  A    between atoms: _255  and  _256
REMARK  103  A    between atoms: _260  and  _261
REMARK  104  A    between atoms: _266  and  _268
REMARK  105  A    between atoms: _268  and  _269
REMARK  106  A    between atoms: _268  and  _271
REMARK  107  A    between atoms: _271  and  _272
REMARK  108  A    between atoms: _278  and  _280
REMARK  109  A    between atoms: _280  and  _281
REMARK  110  A    between atoms: _280  and  _283
REMARK  111  A    between atoms: _283  and  _284
REMARK  112  A    between atoms: _284  and  _285
REMARK  113  A    between atoms: _287  and  _289
REMARK  114  A    between atoms: _289  and  _290
REMARK  115  A    between atoms: _289  and  _292
REMARK  116  A    between atoms: _292  and  _293
REMARK  117  A    between atoms: _296  and  _298
REMARK  118  A    between atoms: _298  and  _299
REMARK  119  A    between atoms: _302  and  _304
REMARK  120  A    between atoms: _304  and  _305
REMARK  121  A    between atoms: _304  and  _307
REMARK  122  A    between atoms: _307  and  _308
REMARK  123  A    between atoms: _308  and  _309
REMARK  124  A    between atoms: _312  and  _314
REMARK  125  A    between atoms: _314  and  _315
REMARK  126  A    between atoms: _314  and  _317
REMARK  127  A    between atoms: _317  and  _318
REMARK  128  A    between atoms: _324  and  _326
REMARK  129  A    between atoms: _326  and  _327
REMARK  130  A    between atoms: _329  and  _331
REMARK  131  A    between atoms: _331  and  _332
REMARK  132  A    between atoms: _331  and  _334
REMARK  133  A    between atoms: _337  and  _339
REMARK  134  A    between atoms: _339  and  _340
REMARK  135  A    between atoms: _339  and  _342
REMARK  136  A    between atoms: _345  and  _347
REMARK  137  A    between atoms: _347  and  _348
REMARK  138  A    between atoms: _350  and  _352
REMARK  139  A    between atoms: _352  and  _353
REMARK  140  A    between atoms: _352  and  _355
REMARK  141  A    between atoms: _355  and  _356
REMARK  142  A    between atoms: _356  and  _357
REMARK  143  A    between atoms: _359  and  _361
REMARK  144  A    between atoms: _361  and  _362
REMARK  145  A    between atoms: _361  and  _364
REMARK  146  A    between atoms: _364  and  _365
REMARK  147  A    between atoms: _371  and  _373
REMARK  148  A    between atoms: _373  and  _374
REMARK  149  A    between atoms: _373  and  _376
REMARK  150  A    between atoms: _376  and  _377
REMARK  151  A    between atoms: _382  and  _383
REMARK  152  A    between atoms: _385  and  _387
REMARK  153  A    between atoms: _387  and  _388
REMARK  154  A    between atoms: _387  and  _390
REMARK  155  A    between atoms: _390  and  _391
REMARK  156  A    between atoms: _394  and  _396
REMARK  157  A    between atoms: _396  and  _397
REMARK  158  A    between atoms: _396  and  _399
REMARK  159  A    between atoms: _402  and  _404
REMARK  160  A    between atoms: _404  and  _405
REMARK  161  A    between atoms: _404  and  _407
REMARK  162  A    between atoms: _407  and  _408
REMARK  163  A    between atoms: _411  and  _413
REMARK  164  A    between atoms: _413  and  _414
REMARK  165  A    between atoms: _413  and  _416
REMARK  166  A    between atoms: _416  and  _417
REMARK  167  A    between atoms: _420  and  _422
REMARK  168  A    between atoms: _422  and  _423
REMARK  169  A    between atoms: _425  and  _427
REMARK  170  A    between atoms: _427  and  _428
REMARK  171  A    between atoms: _431  and  _433
REMARK  172  A    between atoms: _433  and  _434
REMARK  173  A    between atoms: _433  and  _436
REMARK  174  A    between atoms: _436  and  _437
REMARK  175  A    between atoms: _439  and  _441
REMARK  176  A    between atoms: _441  and  _442
REMARK  177  A    between atoms: _441  and  _444
REMARK  178  A    between atoms: _444  and  _445
REMARK  179  A    between atoms: _450  and  _451
REMARK  180  A    between atoms: _453  and  _455
REMARK  181  A    between atoms: _455  and  _456
REMARK  182  A    between atoms: _455  and  _458
REMARK  183  A    between atoms: _458  and  _459
REMARK  184  A    between atoms: _462  and  _464
REMARK  185  A    between atoms: _464  and  _465
REMARK  186  A    between atoms: _464  and  _467
REMARK  187  A    between atoms: _467  and  _468
REMARK  188  A    between atoms: _470  and  _472
REMARK  189  A    between atoms: _472  and  _473
REMARK  190  A    between atoms: _475  and  _477
REMARK  191  A    between atoms: _477  and  _478
REMARK  192  A    between atoms: _477  and  _480
REMARK  193  A    between atoms: _480  and  _481
REMARK  194  A    between atoms: _481  and  _482
REMARK  195  A    between atoms: _482  and  _483
REMARK  196  A    between atoms: _483  and  _484
REMARK  197  A    between atoms: _488  and  _490
REMARK  198  A    between atoms: _490  and  _491
REMARK  199  A    between atoms: _490  and  _493
REMARK  200  A    between atoms: _493  and  _494
REMARK  201  A    between atoms: _500  and  _502
REMARK  202  A    between atoms: _502  and  _503
REMARK  203  A    between atoms: _502  and  _505
REMARK  204  A    between atoms: _505  and  _506
REMARK  205  A    between atoms: _509  and  _511
REMARK  206  A    between atoms: _511  and  _512
REMARK  207  A    between atoms: _511  and  _514
REMARK  208  A    between atoms: _514  and  _515
REMARK  209  A    between atoms: _520  and  _521
REMARK  210  A    between atoms: _523  and  _525
REMARK  211  A    between atoms: _525  and  _526
REMARK  212  A    between atoms: _529  and  _531
REMARK  213  A    between atoms: _531  and  _532
REMARK  214  A    between atoms: _531  and  _534
REMARK  215  A    between atoms: _534  and  _535
REMARK  216  A    between atoms: _538  and  _540
REMARK  217  A    between atoms: _540  and  _541
REMARK  218  A    between atoms: _540  and  _543
REMARK  219  A    between atoms: _543  and  _544
REMARK  220  A    between atoms: _549  and  _551
REMARK  221  A    between atoms: _551  and  _552
REMARK  222  A    between atoms: _555  and  _557
REMARK  223  A    between atoms: _557  and  _558
REMARK  224  A    between atoms: _557  and  _560
REMARK  225  A    between atoms: _560  and  _561
REMARK  226  A    between atoms: _561  and  _562
REMARK  227  A    between atoms: _564  and  _566
REMARK  228  A    between atoms: _566  and  _567
REMARK  229  A    between atoms: _566  and  _569
REMARK  230  A    between atoms: _569  and  _570
REMARK  231  A    between atoms: _573  and  _575
REMARK  232  A    between atoms: _575  and  _576
REMARK  233  A    between atoms: _575  and  _578
REMARK  234  A    between atoms: _578  and  _579
REMARK  235  A    between atoms: _582  and  _584
REMARK  236  A    between atoms: _584  and  _585
REMARK  237  A    between atoms: _588  and  _590
REMARK  238  A    between atoms: _590  and  _591
REMARK  239  A    between atoms: _590  and  _593
REMARK  240  A    between atoms: _593  and  _594
REMARK  241  A    between atoms: _597  and  _599
REMARK  242  A    between atoms: _599  and  _600
REMARK  243  A    between atoms: _602  and  _604
REMARK  244  A    between atoms: _604  and  _605
REMARK  245  A    between atoms: _608  and  _610
REMARK  246  A    between atoms: _610  and  _611
REMARK  247  A    between atoms: _610  and  _613
REMARK  248  A    between atoms: _613  and  _614
REMARK  249  A    between atoms: _617  and  _619
REMARK  250  A    between atoms: _619  and  _620
REMARK  251  A    between atoms: _619  and  _622
REMARK  252  A    between atoms: _622  and  _623
REMARK  253  A    between atoms: _626  and  _628
REMARK  254  A    between atoms: _628  and  _629
REMARK  255  A    between atoms: _628  and  _631
REMARK  256  A    between atoms: _631  and  _632
REMARK  257  A    between atoms: _632  and  _633
REMARK  258  A    between atoms: _633  and  _634
REMARK  259  A    between atoms: _643  and  _645
REMARK  260  A    between atoms: _645  and  _646
REMARK  261  A    between atoms: _645  and  _648
REMARK  262  A    between atoms: _648  and  _649
REMARK  263  A    between atoms: _649  and  _650
REMARK  264  A    between atoms: _650  and  _651
REMARK  265  A    between atoms: _651  and  _652
REMARK  266  A    between atoms: _656  and  _658
REMARK  267  A    between atoms: _658  and  _659
REMARK  268  A    between atoms: _658  and  _661
REMARK  269  A    between atoms: _661  and  _662
REMARK  270  A    between atoms: _667  and  _669
REMARK  271  A    between atoms: _669  and  _670
REMARK  272  A    between atoms: _669  and  _672
REMARK  273  A    between atoms: _672  and  _673
REMARK  274  A    between atoms: _673  and  _674
REMARK  275  A    between atoms: _677  and  _679
REMARK  276  A    between atoms: _679  and  _680
REMARK  277  A    between atoms: _679  and  _682
REMARK  278  A    between atoms: _682  and  _683
REMARK  279  A    between atoms: _686  and  _688
REMARK  280  A    between atoms: _688  and  _689
REMARK  281  A    between atoms: _688  and  _691
REMARK  282  A    between atoms: _691  and  _692
REMARK                            x       y       z     vdW  Elec       q    Type
REMARK                         _______ _______ _______ _____ _____    ______ ____
ROOT
ATOM      1  CG  LYS A   1     -47.072 -34.728 -43.286  0.00  0.00    -0.000 C 
ENDROOT
BRANCH   1   2
ATOM      2  CB  LYS A   1     -46.117 -34.948 -44.465  0.00  0.00    +0.025 C 
BRANCH   2   3
ATOM      3  CA  LYS A   1     -44.685 -34.451 -44.220  0.00  0.00    +0.133 C 
BRANCH   3   4
ATOM      4  N   LYS A   1     -43.986 -34.225 -45.476  0.00  0.00    -0.239 NA
ATOM      5  H   LYS A   1     -44.440 -34.542 -46.356  0.00  0.00    +0.142 HD
ENDBRANCH   3   4
BRANCH   3   6
ATOM      6  C   LYS A   1     -43.919 -35.485 -43.413  0.00  0.00    +0.224 C 
ATOM      7  O   LYS A   1     -43.883 -36.657 -43.765  0.00  0.00    -0.287 OA
ENDBRANCH   3   6
ENDBRANCH   2   3
ENDBRANCH   1   2
BRANCH   1   8
ATOM      8  CD  LYS A   1     -47.595 -33.276 -43.239  0.00  0.00    -0.024 C 
BRANCH   8   9
ATOM      9  CE  LYS A   1     -49.006 -33.189 -42.641  0.00  0.00    -0.086 C 
BRANCH   9  10
ATOM     10  NZ  LYS A   1     -49.598 -31.819 -42.797  0.00  0.00    +0.380 N 
ATOM     11  HZ1 LYS A   1     -48.995 -31.125 -42.311  0.00  0.00    -0.089 HD
ATOM     12  HZ2 LYS A   1     -50.551 -31.805 -42.380  0.00  0.00    -0.089 HD
ATOM     13  HZ3 LYS A   1     -49.657 -31.581 -43.808  0.00  0.00    -0.089 HD
ENDBRANCH   9  10
ENDBRANCH   8   9
ENDBRANCH   1   8
TORSDOF 7
REMARK  Name = ../refined-set-2016/2il2/2il2_pocket.pdb
REMARK  282 active torsions:
REMARK  status: ('A' for Active; 'I' for Inactive)
REMARK    1  A    between atoms: _1  and  _3
REMARK    2  A    between atoms: _3  and  _4
REMARK    3  A    between atoms: _3  and  _6
REMARK    4  A    between atoms: _6  and  _7
REMARK    5  A    between atoms: _10  and  _12
REMARK    6  A    between atoms: _12  and  _13
REMARK    7  A    between atoms: _12  and  _15
REMARK    8  A    between atoms: _15  and  _16
REMARK    9  A    between atoms: _19  and  _21
REMARK   10  A    between atoms: _21  and  _22
REMARK   11  A    between atoms: _21  and  _24
REMARK   12  A    between atoms: _24  and  _25
REMARK   13  A    between atoms: _30  and  _31
REMARK   14  A    between atoms: _33  and  _35
REMARK   15  A    between atoms: _35  and  _36
REMARK   16  A    between atoms: _35  and  _38
REMARK   17  A    between atoms: _38  and  _39
REMARK   18  A    between atoms: _42  and  _44
REMARK   19  A    between atoms: _44  and  _45
REMARK   20  A    between atoms: _44  and  _47
REMARK   21  A    between atoms: _47  and  _48
REMARK   22  A    between atoms: _51  and  _53
REMARK   23  A    between atoms: _53  and  _54
REMARK   24  A    between atoms: _53  and  _56
REMARK   25  A    between atoms: _56  and  _57
REMARK   26  A    between atoms: _57  and  _58
REMARK   27  A    between atoms: _63  and  _65
REMARK   28  A    between atoms: _65  and  _66
REMARK   29  A    between atoms: _65  and  _68
REMARK   30  A    between atoms: _68  and  _69
REMARK   31  A    between atoms: _74  and  _75
REMARK   32  A    between atoms: _77  and  _79
REMARK   33  A    between atoms: _79  and  _80
REMARK   34  A    between atoms: _79  and  _82
REMARK   35  A    between atoms: _82  and  _83
REMARK   36  A    between atoms: _88  and  _89
REMARK   37  A    between atoms: _91  and  _93
REMARK   38  A    between atoms: _93  and  _94
REMARK   39  A    between atoms: _93  and  _96
REMARK   40  A    between atoms: _99  and  _101
REMARK   41  A    between atoms: _101  and  _102
REMARK   42  A    between atoms: _101  and  _104
REMARK   43  A    between atoms: _107  and  _109
REMARK   44  A    between atoms: _109  and  _110
REMARK   45  A    between atoms: _109  and  _112
REMARK   46  A    between atoms: _112  and  _113
REMARK   47  A    between atoms: _119  and  _121
REMARK   48  A    between atoms: _121  and  _122
REMARK   49  A    between atoms: _121  and  _124
REMARK   50  A    between atoms: _124  and  _125
REMARK   51  A    between atoms: _128  and  _130
REMARK   52  A    between atoms: _130  and  _131
REMARK   53  A    between atoms: _130  and  _133
REMARK   54  A    between atoms: _133  and  _134
REMARK   55  A    between atoms: _137  and  _139
REMARK   56  A    between atoms: _139  and  _140
REMARK   57  A    between atoms: _142  and  _144
REMARK   58  A    between atoms: _144  and  _145
REMARK   59  A    between atoms: _144  and  _147
REMARK   60  A    between atoms: _147  and  _148
REMARK   61  A    between atoms: _150  and  _152
REMARK   62  A    between atoms: _152  and  _153
REMARK   63  A    between atoms: _152  and  _155
REMARK   64  A    between atoms: _155  and  _156
REMARK   65  A    between atoms: _158  and  _160
REMARK   66  A    between atoms: _160  and  _161
REMARK   67  A    between atoms: _160  and  _163
REMARK   68  A    between atoms: _163  and  _164
REMARK   69  A    between atoms: _174  and  _176
REMARK   70  A    between atoms: _176  and  _177
REMARK   71  A    between atoms: _176  and  _179
REMARK   72  A    between atoms: _179  and  _180
REMARK   73  A    between atoms: _180  and  _181
REMARK   74  A    between atoms: _181  and  _182
REMARK   75  A    between atoms: _191  and  _193
REMARK   76  A    between atoms: _193  and  _194
REMARK   77  A    between atoms: _193  and  _196
REMARK   78  A    between atoms: _196  and  _197
REMARK   79  A    between atoms: _202  and  _203
REMARK   80  A    between atoms: _205  and  _207
REMARK   81  A    between atoms: _207  and  _208
REMARK   82  A    between atoms: _207  and  _210
REMARK   83  A    between atoms: _210  and  _211
REMARK   84  A    between atoms: _213  and  _215
REMARK   85  A    between atoms: _215  and  _216
REMARK   86  A    between atoms: _215  and  _218
REMARK   87  A    between atoms: _218  and  _219
REMARK   88  A    between atoms: _222  and  _224
REMARK   89  A    between atoms: _224  and  _225
REMARK   90  A    between atoms: _227  and  _229
REMARK   91  A    between atoms: _229  and  _230
REMARK   92  A    between atoms: _229  and  _232
REMARK   93  A    between atoms: _232  and  _233
REMARK   94  A    between atoms: _236  and  _238
REMARK   95  A    between atoms: _238  and  _239
REMARK   96  A    between atoms: _238  and  _241
REMARK   97  A    between atoms: _244  and  _246
REMARK   98  A    between atoms: _246  and  _247
REMARK   99  A    between atoms: _250  and  _252
REMARK  100  A    between atoms: _252  and  _253
REMARK  101  A    between atoms: _252  and  _255
REMARK  102  A    between atoms: _255  and  _256
REMARK  103  A    between atoms: _260  and  _261
REMARK  104  A    between atoms: _266  and  _268
REMARK  105  A    between atoms: _268  and  _269
REMARK  106  A    between atoms: _268  and  _271
REMARK  107  A    between atoms: _271  and  _272
REMARK  108  A    between atoms: _278  and  _280
REMARK  109  A    between atoms: _280  and  _281
REMARK  110  A    between atoms: _280  and  _283
REMARK  111  A    between atoms: _283  and  _284
REMARK  112  A    between atoms: _284  and  _285
REMARK  113  A    between atoms: _287  and  _289
REMARK  114  A    between atoms: _289  and  _290
REMARK  115  A    between atoms: _289  and  _292
REMARK  116  A    between atoms: _292  and  _293
REMARK  117  A    between atoms: _296  and  _298
REMARK  118  A    between atoms: _298  and  _299
REMARK  119  A    between atoms: _302  and  _304
REMARK  120  A    between atoms: _304  and  _305
REMARK  121  A    between atoms: _304  and  _307
REMARK  122  A    between atoms: _307  and  _308
REMARK  123  A    between atoms: _308  and  _309
REMARK  124  A    between atoms: _312  and  _314
REMARK  125  A    between atoms: _314  and  _315
REMARK  126  A    between atoms: _314  and  _317
REMARK  127  A    between atoms: _317  and  _318
REMARK  128  A    between atoms: _324  and  _326
REMARK  129  A    between atoms: _326  and  _327
REMARK  130  A    between atoms: _329  and  _331
REMARK  131  A    between atoms: _331  and  _332
REMARK  132  A    between atoms: _331  and  _334
REMARK  133  A    between atoms: _337  and  _339
REMARK  134  A    between atoms: _339  and  _340
REMARK  135  A    between atoms: _339  and  _342
REMARK  136  A    between atoms: _345  and  _347
REMARK  137  A    between atoms: _347  and  _348
REMARK  138  A    between atoms: _350  and  _352
REMARK  139  A    between atoms: _352  and  _353
REMARK  140  A    between atoms: _352  and  _355
REMARK  141  A    between atoms: _355  and  _356
REMARK  142  A    between atoms: _356  and  _357
REMARK  143  A    between atoms: _359  and  _361
REMARK  144  A    between atoms: _361  and  _362
REMARK  145  A    between atoms: _361  and  _364
REMARK  146  A    between atoms: _364  and  _365
REMARK  147  A    between atoms: _371  and  _373
REMARK  148  A    between atoms: _373  and  _374
REMARK  149  A    between atoms: _373  and  _376
REMARK  150  A    between atoms: _376  and  _377
REMARK  151  A    between atoms: _382  and  _383
REMARK  152  A    between atoms: _385  and  _387
REMARK  153  A    between atoms: _387  and  _388
REMARK  154  A    between atoms: _387  and  _390
REMARK  155  A    between atoms: _390  and  _391
REMARK  156  A    between atoms: _394  and  _396
REMARK  157  A    between atoms: _396  and  _397
REMARK  158  A    between atoms: _396  and  _399
REMARK  159  A    between atoms: _402  and  _404
REMARK  160  A    between atoms: _404  and  _405
REMARK  161  A    between atoms: _404  and  _407
REMARK  162  A    between atoms: _407  and  _408
REMARK  163  A    between atoms: _411  and  _413
REMARK  164  A    between atoms: _413  and  _414
REMARK  165  A    between atoms: _413  and  _416
REMARK  166  A    between atoms: _416  and  _417
REMARK  167  A    between atoms: _420  and  _422
REMARK  168  A    between atoms: _422  and  _423
REMARK  169  A    between atoms: _425  and  _427
REMARK  170  A    between atoms: _427  and  _428
REMARK  171  A    between atoms: _431  and  _433
REMARK  172  A    between atoms: _433  and  _434
REMARK  173  A    between atoms: _433  and  _436
REMARK  174  A    between atoms: _436  and  _437
REMARK  175  A    between atoms: _439  and  _441
REMARK  176  A    between atoms: _441  and  _442
REMARK  177  A    between atoms: _441  and  _444
REMARK  178  A    between atoms: _444  and  _445
REMARK  179  A    between atoms: _450  and  _451
REMARK  180  A    between atoms: _453  and  _455
REMARK  181  A    between atoms: _455  and  _456
REMARK  182  A    between atoms: _455  and  _458
REMARK  183  A    between atoms: _458  and  _459
REMARK  184  A    between atoms: _462  and  _464
REMARK  185  A    between atoms: _464  and  _465
REMARK  186  A    between atoms: _464  and  _467
REMARK  187  A    between atoms: _467  and  _468
REMARK  188  A    between atoms: _470  and  _472
REMARK  189  A    between atoms: _472  and  _473
REMARK  190  A    between atoms: _475  and  _477
REMARK  191  A    between atoms: _477  and  _478
REMARK  192  A    between atoms: _477  and  _480
REMARK  193  A    between atoms: _480  and  _481
REMARK  194  A    between atoms: _481  and  _482
REMARK  195  A    between atoms: _482  and  _483
REMARK  196  A    between atoms: _483  and  _484
REMARK  197  A    between atoms: _488  and  _490
REMARK  198  A    between atoms: _490  and  _491
REMARK  199  A    between atoms: _490  and  _493
REMARK  200  A    between atoms: _493  and  _494
REMARK  201  A    between atoms: _500  and  _502
REMARK  202  A    between atoms: _502  and  _503
REMARK  203  A    between atoms: _502  and  _505
REMARK  204  A    between atoms: _505  and  _506
REMARK  205  A    between atoms: _509  and  _511
REMARK  206  A    between atoms: _511  and  _512
REMARK  207  A    between atoms: _511  and  _514
REMARK  208  A    between atoms: _514  and  _515
REMARK  209  A    between atoms: _520  and  _521
REMARK  210  A    between atoms: _523  and  _525
REMARK  211  A    between atoms: _525  and  _526
REMARK  212  A    between atoms: _529  and  _531
REMARK  213  A    between atoms: _531  and  _532
REMARK  214  A    between atoms: _531  and  _534
REMARK  215  A    between atoms: _534  and  _535
REMARK  216  A    between atoms: _538  and  _540
REMARK  217  A    between atoms: _540  and  _541
REMARK  218  A    between atoms: _540  and  _543
REMARK  219  A    between atoms: _543  and  _544
REMARK  220  A    between atoms: _549  and  _551
REMARK  221  A    between atoms: _551  and  _552
REMARK  222  A    between atoms: _555  and  _557
REMARK  223  A    between atoms: _557  and  _558
REMARK  224  A    between atoms: _557  and  _560
REMARK  225  A    between atoms: _560  and  _561
REMARK  226  A    between atoms: _561  and  _562
REMARK  227  A    between atoms: _564  and  _566
REMARK  228  A    between atoms: _566  and  _567
REMARK  229  A    between atoms: _566  and  _569
REMARK  230  A    between atoms: _569  and  _570
REMARK  231  A    between atoms: _573  and  _575
REMARK  232  A    between atoms: _575  and  _576
REMARK  233  A    between atoms: _575  and  _578
REMARK  234  A    between atoms: _578  and  _579
REMARK  235  A    between atoms: _582  and  _584
REMARK  236  A    between atoms: _584  and  _585
REMARK  237  A    between atoms: _588  and  _590
REMARK  238  A    between atoms: _590  and  _591
REMARK  239  A    between atoms: _590  and  _593
REMARK  240  A    between atoms: _593  and  _594
REMARK  241  A    between atoms: _597  and  _599
REMARK  242  A    between atoms: _599  and  _600
REMARK  243  A    between atoms: _602  and  _604
REMARK  244  A    between atoms: _604  and  _605
REMARK  245  A    between atoms: _608  and  _610
REMARK  246  A    between atoms: _610  and  _611
REMARK  247  A    between atoms: _610  and  _613
REMARK  248  A    between atoms: _613  and  _614
REMARK  249  A    between atoms: _617  and  _619
REMARK  250  A    between atoms: _619  and  _620
REMARK  251  A    between atoms: _619  and  _622
REMARK  252  A    between atoms: _622  and  _623
REMARK  253  A    between atoms: _626  and  _628
REMARK  254  A    between atoms: _628  and  _629
REMARK  255  A    between atoms: _628  and  _631
REMARK  256  A    between atoms: _631  and  _632
REMARK  257  A    between atoms: _632  and  _633
REMARK  258  A    between atoms: _633  and  _634
REMARK  259  A    between atoms: _643  and  _645
REMARK  260  A    between atoms: _645  and  _646
REMARK  261  A    between atoms: _645  and  _648
REMARK  262  A    between atoms: _648  and  _649
REMARK  263  A    between atoms: _649  and  _650
REMARK  264  A    between atoms: _650  and  _651
REMARK  265  A    between atoms: _651  and  _652
REMARK  266  A    between atoms: _656  and  _658
REMARK  267  A    between atoms: _658  and  _659
REMARK  268  A    between atoms: _658  and  _661
REMARK  269  A    between atoms: _661  and  _662
REMARK  270  A    between atoms: _667  and  _669
REMARK  271  A    between atoms: _669  and  _670
REMARK  272  A    between atoms: _669  and  _672
REMARK  273  A    between atoms: _672  and  _673
REMARK  274  A    between atoms: _673  and  _674
REMARK  275  A    between atoms: _677  and  _679
REMARK  276  A    between atoms: _679  and  _680
REMARK  277  A    between atoms: _679  and  _682
REMARK  278  A    between atoms: _682  and  _683
REMARK  279  A    between atoms: _686  and  _688
REMARK  280  A    between atoms: _688  and  _689
REMARK  281  A    between atoms: _688  and  _691
REMARK  282  A    between atoms: _691  and  _692
REMARK                            x       y       z     vdW  Elec       q    Type
REMARK                         _______ _______ _______ _____ _____    ______ ____
ROOT
ATOM      1  CA  ASP A   2     -45.311 -31.409 -39.939  0.00  0.00    +0.160 C 
ENDROOT
BRANCH   1   3
ATOM      2  C   PHE A   1     -46.864 -33.077 -38.918  0.00  0.00    +0.239 C 
ATOM      3  N   ASP A   2     -45.619 -32.648 -39.187  0.00  0.00    -0.297 N 
ATOM      4  H   ASP A   2     -44.822 -33.222 -38.846  0.00  0.00    +0.150 HD
ATOM      5  O   PHE A   1     -47.873 -32.601 -39.438  0.00  0.00    -0.274 OA
BRANCH   2   6
ATOM      6  CA  PHE A   1     -47.009 -34.239 -37.934  0.00  0.00    +0.149 C 
BRANCH   6   7
ATOM      7  N   PHE A   1     -46.022 -35.285 -38.177  0.00  0.00    -0.238 NA
ATOM      8  H   PHE A   1     -45.105 -35.237 -37.689  0.00  0.00    +0.142 HD
ENDBRANCH   6   7
BRANCH   6   9
ATOM      9  CB  PHE A   1     -46.925 -33.747 -36.472  0.00  0.00    +0.053 C 
BRANCH   9  10
ATOM     10  CG  PHE A   1     -47.025 -34.862 -35.447  0.00  0.00    -0.020 A 
ATOM     11  CD2 PHE A   1     -45.888 -35.335 -34.796  0.00  0.00    -0.004 A 
ATOM     12  CE2 PHE A   1     -45.967 -36.371 -33.854  0.00  0.00    -0.000 A 
ATOM     13  CZ  PHE A   1     -47.201 -36.953 -33.561  0.00  0.00    -0.000 A 
ATOM     14  CE1 PHE A   1     -48.347 -36.498 -34.217  0.00  0.00    -0.000 A 
ATOM     15  CD1 PHE A   1     -48.251 -35.453 -35.153  0.00  0.00    -0.004 A 
ENDBRANCH   9  10
ENDBRANCH   6   9
ENDBRANCH   2   6
ENDBRANCH   1   3
BRANCH   1  16
ATOM     16  C   ASP A   2     -44.486 -31.621 -41.230  0.00  0.00    +0.241 C 
ATOM     17  O   ASP A   2     -43.845 -32.657 -41.413  0.00  0.00    -0.273 OA
ATOM     18  N   TYR A   3     -44.469 -30.594 -42.081  0.00  0.00    -0.298 N 
ATOM     19  H   TYR A   3     -45.105 -29.792 -41.898  0.00  0.00    +0.150 HD
BRANCH  18  20
ATOM     20  CA  TYR A   3     -43.598 -30.536 -43.265  0.00  0.00    +0.141 C 
BRANCH  20  21
ATOM     21  C   TYR A   3     -42.189 -30.049 -42.940  0.00  0.00    +0.227 C 
ATOM     22  O   TYR A   3     -42.028 -28.980 -42.341  0.00  0.00    -0.286 OA
ENDBRANCH  20  21
BRANCH  20  23
ATOM     23  CB  TYR A   3     -44.175 -29.579 -44.307  0.00  0.00    +0.054 C 
BRANCH  23  24
ATOM     24  CG  TYR A   3     -45.390 -30.089 -45.036  0.00  0.00    -0.020 A 
ATOM     25  CD2 TYR A   3     -46.661 -29.624 -44.721  0.00  0.00    -0.001 A 
ATOM     26  CE2 TYR A   3     -47.784 -30.085 -45.407  0.00  0.00    +0.036 A 
ATOM     27  CZ  TYR A   3     -47.625 -31.003 -46.428  0.00  0.00    +0.134 A 
ATOM     28  CE1 TYR A   3     -46.369 -31.470 -46.752  0.00  0.00    +0.036 A 
ATOM     29  CD1 TYR A   3     -45.266 -31.015 -46.059  0.00  0.00    -0.001 A 
BRANCH  27  30
ATOM     30  OH  TYR A   3     -48.724 -31.473 -47.120  0.00  0.00    -0.506 OA
ATOM     31  HH  TYR A   3     -49.543 -31.042 -46.768  0.00  0.00    +0.292 HD
ENDBRANCH  27  30
ENDBRANCH  23  24
ENDBRANCH  20  23
ENDBRANCH  18  20
ENDBRANCH   1  16
BRANCH   1  32
ATOM     32  CB  ASP A   2     -44.480 -30.471 -39.062  0.00  0.00    +0.143 C 
BRANCH  32  33
ATOM     33  CG  ASP A   2     -45.294 -29.726 -38.031  0.00  0.00    +0.367 C 
ATOM     34  OD2 ASP A   2     -44.686 -28.910 -37.319  0.00  0.00    -0.246 OA
ATOM     35  OD1 ASP A   2     -46.519 -29.922 -37.926  0.00  0.00    -0.246 OA
ENDBRANCH  32  33
ENDBRANCH   1  32
TORSDOF 13
REMARK  Name = ../refined-set-2016/2il2/2il2_pocket.pdb
REMARK  282 active torsions:
REMARK  status: ('A' for Active; 'I' for Inactive)
REMARK    1  A    between atoms: _1  and  _3
REMARK    2  A    between atoms: _3  and  _4
REMARK    3  A    between atoms: _3  and  _6
REMARK    4  A    between atoms: _6  and  _7
REMARK    5  A    between atoms: _10  and  _12
REMARK    6  A    between atoms: _12  and  _13
REMARK    7  A    between atoms: _12  and  _15
REMARK    8  A    between atoms: _15  and  _16
REMARK    9  A    between atoms: _19  and  _21
REMARK   10  A    between atoms: _21  and  _22
REMARK   11  A    between atoms: _21  and  _24
REMARK   12  A    between atoms: _24  and  _25
REMARK   13  A    between atoms: _30  and  _31
REMARK   14  A    between atoms: _33  and  _35
REMARK   15  A    between atoms: _35  and  _36
REMARK   16  A    between atoms: _35  and  _38
REMARK   17  A    between atoms: _38  and  _39
REMARK   18  A    between atoms: _42  and  _44
REMARK   19  A    between atoms: _44  and  _45
REMARK   20  A    between atoms: _44  and  _47
REMARK   21  A    between atoms: _47  and  _48
REMARK   22  A    between atoms: _51  and  _53
REMARK   23  A    between atoms: _53  and  _54
REMARK   24  A    between atoms: _53  and  _56
REMARK   25  A    between atoms: _56  and  _57
REMARK   26  A    between atoms: _57  and  _58
REMARK   27  A    between atoms: _63  and  _65
REMARK   28  A    between atoms: _65  and  _66
REMARK   29  A    between atoms: _65  and  _68
REMARK   30  A    between atoms: _68  and  _69
REMARK   31  A    between atoms: _74  and  _75
REMARK   32  A    between atoms: _77  and  _79
REMARK   33  A    between atoms: _79  and  _80
REMARK   34  A    between atoms: _79  and  _82
REMARK   35  A    between atoms: _82  and  _83
REMARK   36  A    between atoms: _88  and  _89
REMARK   37  A    between atoms: _91  and  _93
REMARK   38  A    between atoms: _93  and  _94
REMARK   39  A    between atoms: _93  and  _96
REMARK   40  A    between atoms: _99  and  _101
REMARK   41  A    between atoms: _101  and  _102
REMARK   42  A    between atoms: _101  and  _104
REMARK   43  A    between atoms: _107  and  _109
REMARK   44  A    between atoms: _109  and  _110
REMARK   45  A    between atoms: _109  and  _112
REMARK   46  A    between atoms: _112  and  _113
REMARK   47  A    between atoms: _119  and  _121
REMARK   48  A    between atoms: _121  and  _122
REMARK   49  A    between atoms: _121  and  _124
REMARK   50  A    between atoms: _124  and  _125
REMARK   51  A    between atoms: _128  and  _130
REMARK   52  A    between atoms: _130  and  _131
REMARK   53  A    between atoms: _130  and  _133
REMARK   54  A    between atoms: _133  and  _134
REMARK   55  A    between atoms: _137  and  _139
REMARK   56  A    between atoms: _139  and  _140
REMARK   57  A    between atoms: _142  and  _144
REMARK   58  A    between atoms: _144  and  _145
REMARK   59  A    between atoms: _144  and  _147
REMARK   60  A    between atoms: _147  and  _148
REMARK   61  A    between atoms: _150  and  _152
REMARK   62  A    between atoms: _152  and  _153
REMARK   63  A    between atoms: _152  and  _155
REMARK   64  A    between atoms: _155  and  _156
REMARK   65  A    between atoms: _158  and  _160
REMARK   66  A    between atoms: _160  and  _161
REMARK   67  A    between atoms: _160  and  _163
REMARK   68  A    between atoms: _163  and  _164
REMARK   69  A    between atoms: _174  and  _176
REMARK   70  A    between atoms: _176  and  _177
REMARK   71  A    between atoms: _176  and  _179
REMARK   72  A    between atoms: _179  and  _180
REMARK   73  A    between atoms: _180  and  _181
REMARK   74  A    between atoms: _181  and  _182
REMARK   75  A    between atoms: _191  and  _193
REMARK   76  A    between atoms: _193  and  _194
REMARK   77  A    between atoms: _193  and  _196
REMARK   78  A    between atoms: _196  and  _197
REMARK   79  A    between atoms: _202  and  _203
REMARK   80  A    between atoms: _205  and  _207
REMARK   81  A    between atoms: _207  and  _208
REMARK   82  A    between atoms: _207  and  _210
REMARK   83  A    between atoms: _210  and  _211
REMARK   84  A    between atoms: _213  and  _215
REMARK   85  A    between atoms: _215  and  _216
REMARK   86  A    between atoms: _215  and  _218
REMARK   87  A    between atoms: _218  and  _219
REMARK   88  A    between atoms: _222  and  _224
REMARK   89  A    between atoms: _224  and  _225
REMARK   90  A    between atoms: _227  and  _229
REMARK   91  A    between atoms: _229  and  _230
REMARK   92  A    between atoms: _229  and  _232
REMARK   93  A    between atoms: _232  and  _233
REMARK   94  A    between atoms: _236  and  _238
REMARK   95  A    between atoms: _238  and  _239
REMARK   96  A    between atoms: _238  and  _241
REMARK   97  A    between atoms: _244  and  _246
REMARK   98  A    between atoms: _246  and  _247
REMARK   99  A    between atoms: _250  and  _252
REMARK  100  A    between atoms: _252  and  _253
REMARK  101  A    between atoms: _252  and  _255
REMARK  102  A    between atoms: _255  and  _256
REMARK  103  A    between atoms: _260  and  _261
REMARK  104  A    between atoms: _266  and  _268
REMARK  105  A    between atoms: _268  and  _269
REMARK  106  A    between atoms: _268  and  _271
REMARK  107  A    between atoms: _271  and  _272
REMARK  108  A    between atoms: _278  and  _280
REMARK  109  A    between atoms: _280  and  _281
REMARK  110  A    between atoms: _280  and  _283
REMARK  111  A    between atoms: _283  and  _284
REMARK  112  A    between atoms: _284  and  _285
REMARK  113  A    between atoms: _287  and  _289
REMARK  114  A    between atoms: _289  and  _290
REMARK  115  A    between atoms: _289  and  _292
REMARK  116  A    between atoms: _292  and  _293
REMARK  117  A    between atoms: _296  and  _298
REMARK  118  A    between atoms: _298  and  _299
REMARK  119  A    between atoms: _302  and  _304
REMARK  120  A    between atoms: _304  and  _305
REMARK  121  A    between atoms: _304  and  _307
REMARK  122  A    between atoms: _307  and  _308
REMARK  123  A    between atoms: _308  and  _309
REMARK  124  A    between atoms: _312  and  _314
REMARK  125  A    between atoms: _314  and  _315
REMARK  126  A    between atoms: _314  and  _317
REMARK  127  A    between atoms: _317  and  _318
REMARK  128  A    between atoms: _324  and  _326
REMARK  129  A    between atoms: _326  and  _327
REMARK  130  A    between atoms: _329  and  _331
REMARK  131  A    between atoms: _331  and  _332
REMARK  132  A    between atoms: _331  and  _334
REMARK  133  A    between atoms: _337  and  _339
REMARK  134  A    between atoms: _339  and  _340
REMARK  135  A    between atoms: _339  and  _342
REMARK  136  A    between atoms: _345  and  _347
REMARK  137  A    between atoms: _347  and  _348
REMARK  138  A    between atoms: _350  and  _352
REMARK  139  A    between atoms: _352  and  _353
REMARK  140  A    between atoms: _352  and  _355
REMARK  141  A    between atoms: _355  and  _356
REMARK  142  A    between atoms: _356  and  _357
REMARK  143  A    between atoms: _359  and  _361
REMARK  144  A    between atoms: _361  and  _362
REMARK  145  A    between atoms: _361  and  _364
REMARK  146  A    between atoms: _364  and  _365
REMARK  147  A    between atoms: _371  and  _373
REMARK  148  A    between atoms: _373  and  _374
REMARK  149  A    between atoms: _373  and  _376
REMARK  150  A    between atoms: _376  and  _377
REMARK  151  A    between atoms: _382  and  _383
REMARK  152  A    between atoms: _385  and  _387
REMARK  153  A    between atoms: _387  and  _388
REMARK  154  A    between atoms: _387  and  _390
REMARK  155  A    between atoms: _390  and  _391
REMARK  156  A    between atoms: _394  and  _396
REMARK  157  A    between atoms: _396  and  _397
REMARK  158  A    between atoms: _396  and  _399
REMARK  159  A    between atoms: _402  and  _404
REMARK  160  A    between atoms: _404  and  _405
REMARK  161  A    between atoms: _404  and  _407
REMARK  162  A    between atoms: _407  and  _408
REMARK  163  A    between atoms: _411  and  _413
REMARK  164  A    between atoms: _413  and  _414
REMARK  165  A    between atoms: _413  and  _416
REMARK  166  A    between atoms: _416  and  _417
REMARK  167  A    between atoms: _420  and  _422
REMARK  168  A    between atoms: _422  and  _423
REMARK  169  A    between atoms: _425  and  _427
REMARK  170  A    between atoms: _427  and  _428
REMARK  171  A    between atoms: _431  and  _433
REMARK  172  A    between atoms: _433  and  _434
REMARK  173  A    between atoms: _433  and  _436
REMARK  174  A    between atoms: _436  and  _437
REMARK  175  A    between atoms: _439  and  _441
REMARK  176  A    between atoms: _441  and  _442
REMARK  177  A    between atoms: _441  and  _444
REMARK  178  A    between atoms: _444  and  _445
REMARK  179  A    between atoms: _450  and  _451
REMARK  180  A    between atoms: _453  and  _455
REMARK  181  A    between atoms: _455  and  _456
REMARK  182  A    between atoms: _455  and  _458
REMARK  183  A    between atoms: _458  and  _459
REMARK  184  A    between atoms: _462  and  _464
REMARK  185  A    between atoms: _464  and  _465
REMARK  186  A    between atoms: _464  and  _467
REMARK  187  A    between atoms: _467  and  _468
REMARK  188  A    between atoms: _470  and  _472
REMARK  189  A    between atoms: _472  and  _473
REMARK  190  A    between atoms: _475  and  _477
REMARK  191  A    between atoms: _477  and  _478
REMARK  192  A    between atoms: _477  and  _480
REMARK  193  A    between atoms: _480  and  _481
REMARK  194  A    between atoms: _481  and  _482
REMARK  195  A    between atoms: _482  and  _483
REMARK  196  A    between atoms: _483  and  _484
REMARK  197  A    between atoms: _488  and  _490
REMARK  198  A    between atoms: _490  and  _491
REMARK  199  A    between atoms: _490  and  _493
REMARK  200  A    between atoms: _493  and  _494
REMARK  201  A    between atoms: _500  and  _502
REMARK  202  A    between atoms: _502  and  _503
REMARK  203  A    between atoms: _502  and  _505
REMARK  204  A    between atoms: _505  and  _506
REMARK  205  A    between atoms: _509  and  _511
REMARK  206  A    between atoms: _511  and  _512
REMARK  207  A    between atoms: _511  and  _514
REMARK  208  A    between atoms: _514  and  _515
REMARK  209  A    between atoms: _520  and  _521
REMARK  210  A    between atoms: _523  and  _525
REMARK  211  A    between atoms: _525  and  _526
REMARK  212  A    between atoms: _529  and  _531
REMARK  213  A    between atoms: _531  and  _532
REMARK  214  A    between atoms: _531  and  _534
REMARK  215  A    between atoms: _534  and  _535
REMARK  216  A    between atoms: _538  and  _540
REMARK  217  A    between atoms: _540  and  _541
REMARK  218  A    between atoms: _540  and  _543
REMARK  219  A    between atoms: _543  and  _544
REMARK  220  A    between atoms: _549  and  _551
REMARK  221  A    between atoms: _551  and  _552
REMARK  222  A    between atoms: _555  and  _557
REMARK  223  A    between atoms: _557  and  _558
REMARK  224  A    between atoms: _557  and  _560
REMARK  225  A    between atoms: _560  and  _561
REMARK  226  A    between atoms: _561  and  _562
REMARK  227  A    between atoms: _564  and  _566
REMARK  228  A    between atoms: _566  and  _567
REMARK  229  A    between atoms: _566  and  _569
REMARK  230  A    between atoms: _569  and  _570
REMARK  231  A    between atoms: _573  and  _575
REMARK  232  A    between atoms: _575  and  _576
REMARK  233  A    between atoms: _575  and  _578
REMARK  234  A    between atoms: _578  and  _579
REMARK  235  A    between atoms: _582  and  _584
REMARK  236  A    between atoms: _584  and  _585
REMARK  237  A    between atoms: _588  and  _590
REMARK  238  A    between atoms: _590  and  _591
REMARK  239  A    between atoms: _590  and  _593
REMARK  240  A    between atoms: _593  and  _594
REMARK  241  A    between atoms: _597  and  _599
REMARK  242  A    between atoms: _599  and  _600
REMARK  243  A    between atoms: _602  and  _604
REMARK  244  A    between atoms: _604  and  _605
REMARK  245  A    between atoms: _608  and  _610
REMARK  246  A    between atoms: _610  and  _611
REMARK  247  A    between atoms: _610  and  _613
REMARK  248  A    between atoms: _613  and  _614
REMARK  249  A    between atoms: _617  and  _619
REMARK  250  A    between atoms: _619  and  _620
REMARK  251  A    between atoms: _619  and  _622
REMARK  252  A    between atoms: _622  and  _623
REMARK  253  A    between atoms: _626  and  _628
REMARK  254  A    between atoms: _628  and  _629
REMARK  255  A    between atoms: _628  and  _631
REMARK  256  A    between atoms: _631  and  _632
REMARK  257  A    between atoms: _632  and  _633
REMARK  258  A    between atoms: _633  and  _634
REMARK  259  A    between atoms: _643  and  _645
REMARK  260  A    between atoms: _645  and  _646
REMARK  261  A    between atoms: _645  and  _648
REMARK  262  A    between atoms: _648  and  _649
REMARK  263  A    between atoms: _649  and  _650
REMARK  264  A    between atoms: _650  and  _651
REMARK  265  A    between atoms: _651  and  _652
REMARK  266  A    between atoms: _656  and  _658
REMARK  267  A    between atoms: _658  and  _659
REMARK  268  A    between atoms: _658  and  _661
REMARK  269  A    between atoms: _661  and  _662
REMARK  270  A    between atoms: _667  and  _669
REMARK  271  A    between atoms: _669  and  _670
REMARK  272  A    between atoms: _669  and  _672
REMARK  273  A    between atoms: _672  and  _673
REMARK  274  A    between atoms: _673  and  _674
REMARK  275  A    between atoms: _677  and  _679
REMARK  276  A    between atoms: _679  and  _680
REMARK  277  A    between atoms: _679  and  _682
REMARK  278  A    between atoms: _682  and  _683
REMARK  279  A    between atoms: _686  and  _688
REMARK  280  A    between atoms: _688  and  _689
REMARK  281  A    between atoms: _688  and  _691
REMARK  282  A    between atoms: _691  and  _692
REMARK                            x       y       z     vdW  Elec       q    Type
REMARK                         _______ _______ _______ _____ _____    ______ ____
ROOT
ATOM      1  CA  ALA A   4     -52.674 -26.347 -44.182  0.00  0.00    +0.149 C 
ATOM      2  CB  ALA A   4     -52.974 -27.758 -44.674  0.00  0.00    +0.031 C 
ENDROOT
BRANCH   1   4
ATOM      3  C   HIS A   3     -50.716 -25.076 -43.429  0.00  0.00    +0.241 C 
ATOM      4  N   ALA A   4     -51.328 -26.252 -43.601  0.00  0.00    -0.297 N 
ATOM      5  H   ALA A   4     -50.838 -27.124 -43.316  0.00  0.00    +0.150 HD
ATOM      6  O   HIS A   3     -51.162 -24.023 -43.861  0.00  0.00    -0.273 OA
BRANCH   3   7
ATOM      7  CA  HIS A   3     -49.399 -25.092 -42.652  0.00  0.00    +0.155 C 
BRANCH   7   9
ATOM      8  C   ILE A   2     -47.236 -24.010 -43.079  0.00  0.00    +0.241 C 
ATOM      9  N   HIS A   3     -48.560 -23.927 -42.937  0.00  0.00    -0.297 N 
ATOM     10  H   HIS A   3     -49.015 -22.996 -43.033  0.00  0.00    +0.150 HD
ATOM     11  O   ILE A   2     -46.608 -25.073 -43.022  0.00  0.00    -0.273 OA
BRANCH   8  12
ATOM     12  CA  ILE A   2     -46.493 -22.693 -43.290  0.00  0.00    +0.148 C 
BRANCH  12  15
ATOM     13  C   ALA A   1     -44.967 -21.590 -41.692  0.00  0.00    +0.238 C 
ATOM     14  O   ALA A   1     -45.558 -20.495 -41.735  0.00  0.00    -0.274 OA
ATOM     15  N   ILE A   2     -45.344 -22.656 -42.388  0.00  0.00    -0.297 N 
ATOM     16  H   ILE A   2     -44.782 -23.525 -42.284  0.00  0.00    +0.150 HD
BRANCH  13  17
ATOM     17  CA  ALA A   1     -43.733 -21.789 -40.805  0.00  0.00    +0.145 C 
ATOM     18  CB  ALA A   1     -43.165 -20.434 -40.387  0.00  0.00    +0.028 C 
BRANCH  17  19
ATOM     19  N   ALA A   1     -42.688 -22.591 -41.465  0.00  0.00    -0.238 NA
ATOM     20  H   ALA A   1     -41.968 -22.098 -42.031  0.00  0.00    +0.142 HD
ENDBRANCH  17  19
ENDBRANCH  13  17
ENDBRANCH  12  15
BRANCH  12  21
ATOM     21  CB  ILE A   2     -46.066 -22.587 -44.785  0.00  0.00    +0.027 C 
ATOM     22  CG2 ILE A   2     -47.303 -22.514 -45.701  0.00  0.00    +0.002 C 
BRANCH  21  23
ATOM     23  CG1 ILE A   2     -45.116 -21.389 -44.988  0.00  0.00    +0.002 C 
ATOM     24  CD1 ILE A   2     -44.571 -21.262 -46.396  0.00  0.00    +0.000 C 
ENDBRANCH  21  23
ENDBRANCH  12  21
ENDBRANCH   8  12
ENDBRANCH   7   9
BRANCH   7  25
ATOM     25  CB  HIS A   3     -49.699 -25.167 -41.152  0.00  0.00    +0.076 C 
BRANCH  25  26
ATOM     26  CG  HIS A   3     -48.500 -25.484 -40.309  0.00  0.00    +0.082 A 
ATOM     27  ND1 HIS A   3     -48.273 -26.737 -39.777  0.00  0.00    -0.227 NA
ATOM     28  CE1 HIS A   3     -47.153 -26.721 -39.076  0.00  0.00    +0.199 A 
ATOM     29  NE2 HIS A   3     -46.640 -25.506 -39.138  0.00  0.00    -0.221 NA
ATOM     30  CD2 HIS A   3     -47.460 -24.714 -39.909  0.00  0.00    +0.115 A 
ENDBRANCH  25  26
ENDBRANCH   7  25
ENDBRANCH   3   7
ENDBRANCH   1   4
BRANCH   1  31
ATOM     31  C   ALA A   4     -53.697 -25.940 -43.132  0.00  0.00    +0.241 C 
ATOM     32  O   ALA A   4     -53.502 -26.203 -41.954  0.00  0.00    -0.273 OA
ATOM     33  N   MET A   5     -54.770 -25.278 -43.559  0.00  0.00    -0.297 N 
ATOM     34  H   MET A   5     -54.800 -24.950 -44.545  0.00  0.00    +0.150 HD
BRANCH  33  35
ATOM     35  CA  MET A   5     -55.902 -24.999 -42.690  0.00  0.00    +0.149 C 
BRANCH  35  36
ATOM     36  C   MET A   5     -57.080 -24.775 -43.605  0.00  0.00    +0.241 C 
ATOM     37  N   ASP A   6     -58.034 -25.702 -43.586  0.00  0.00    -0.297 N 
ATOM     38  H   ASP A   6     -57.930 -26.520 -42.952  0.00  0.00    +0.150 HD
ATOM     39  O   MET A   5     -57.111 -23.807 -44.345  0.00  0.00    -0.273 OA
BRANCH  37  40
ATOM     40  CA  ASP A   6     -59.222 -25.606 -44.428  0.00  0.00    +0.160 C 
BRANCH  40  41
ATOM     41  C   ASP A   6     -60.241 -24.820 -43.630  0.00  0.00    +0.241 C 
ATOM     42  O   ASP A   6     -60.838 -25.344 -42.680  0.00  0.00    -0.273 OA
ATOM     43  N   ILE A   7     -60.411 -23.556 -43.997  0.00  0.00    -0.298 N 
ATOM     44  H   ILE A   7     -59.905 -23.203 -44.834  0.00  0.00    +0.150 HD
BRANCH  43  45
ATOM     45  CA  ILE A   7     -61.281 -22.648 -43.267  0.00  0.00    +0.137 C 
BRANCH  45  46
ATOM     46  C   ILE A   7     -62.646 -22.727 -43.944  0.00  0.00    +0.227 C 
ATOM     47  O   ILE A   7     -62.728 -22.662 -45.178  0.00  0.00    -0.286 OA
ENDBRANCH  45  46
BRANCH  45  48
ATOM     48  CB  ILE A   7     -60.679 -21.215 -43.209  0.00  0.00    +0.026 C 
ATOM     49  CG2 ILE A   7     -61.558 -20.273 -42.378  0.00  0.00    +0.002 C 
BRANCH  48  50
ATOM     50  CG1 ILE A   7     -59.265 -21.283 -42.598  0.00  0.00    +0.002 C 
ATOM     51  CD1 ILE A   7     -58.574 -19.931 -42.380  0.00  0.00    +0.000 C 
ENDBRANCH  48  50
ENDBRANCH  45  48
ENDBRANCH  43  45
ENDBRANCH  40  41
BRANCH  40  52
ATOM     52  CB  ASP A   6     -59.762 -26.989 -44.782  0.00  0.00    +0.143 C 
BRANCH  52  53
ATOM     53  CG  ASP A   6     -58.781 -27.811 -45.601  0.00  0.00    +0.367 C 
ATOM     54  OD2 ASP A   6     -58.391 -28.897 -45.132  0.00  0.00    -0.246 OA
ATOM     55  OD1 ASP A   6     -58.398 -27.377 -46.708  0.00  0.00    -0.246 OA
ENDBRANCH  52  53
ENDBRANCH  40  52
ENDBRANCH  37  40
ENDBRANCH  35  36
BRANCH  35  56
ATOM     56  CB  MET A   5     -55.646 -23.774 -41.814  0.00  0.00    +0.041 C 
BRANCH  56  57
ATOM     57  CG  MET A   5     -56.733 -23.475 -40.766  0.00  0.00    +0.060 C 
BRANCH  57  58
ATOM     58  SD  MET A   5     -56.996 -24.758 -39.511  0.00  0.00    -0.139 S 
ATOM     59  CE  MET A   5     -55.604 -24.525 -38.434  0.00  0.00    +0.069 C 
ENDBRANCH  57  58
ENDBRANCH  56  57
ENDBRANCH  35  56
ENDBRANCH  33  35
ENDBRANCH   1  31
TORSDOF 25
REMARK  Name = ../refined-set-2016/2il2/2il2_pocket.pdb
REMARK  282 active torsions:
REMARK  status: ('A' for Active; 'I' for Inactive)
REMARK    1  A    between atoms: _1  and  _3
REMARK    2  A    between atoms: _3  and  _4
REMARK    3  A    between atoms: _3  and  _6
REMARK    4  A    between atoms: _6  and  _7
REMARK    5  A    between atoms: _10  and  _12
REMARK    6  A    between atoms: _12  and  _13
REMARK    7  A    between atoms: _12  and  _15
REMARK    8  A    between atoms: _15  and  _16
REMARK    9  A    between atoms: _19  and  _21
REMARK   10  A    between atoms: _21  and  _22
REMARK   11  A    between atoms: _21  and  _24
REMARK   12  A    between atoms: _24  and  _25
REMARK   13  A    between atoms: _30  and  _31
REMARK   14  A    between atoms: _33  and  _35
REMARK   15  A    between atoms: _35  and  _36
REMARK   16  A    between atoms: _35  and  _38
REMARK   17  A    between atoms: _38  and  _39
REMARK   18  A    between atoms: _42  and  _44
REMARK   19  A    between atoms: _44  and  _45
REMARK   20  A    between atoms: _44  and  _47
REMARK   21  A    between atoms: _47  and  _48
REMARK   22  A    between atoms: _51  and  _53
REMARK   23  A    between atoms: _53  and  _54
REMARK   24  A    between atoms: _53  and  _56
REMARK   25  A    between atoms: _56  and  _57
REMARK   26  A    between atoms: _57  and  _58
REMARK   27  A    between atoms: _63  and  _65
REMARK   28  A    between atoms: _65  and  _66
REMARK   29  A    between atoms: _65  and  _68
REMARK   30  A    between atoms: _68  and  _69
REMARK   31  A    between atoms: _74  and  _75
REMARK   32  A    between atoms: _77  and  _79
REMARK   33  A    between atoms: _79  and  _80
REMARK   34  A    between atoms: _79  and  _82
REMARK   35  A    between atoms: _82  and  _83
REMARK   36  A    between atoms: _88  and  _89
REMARK   37  A    between atoms: _91  and  _93
REMARK   38  A    between atoms: _93  and  _94
REMARK   39  A    between atoms: _93  and  _96
REMARK   40  A    between atoms: _99  and  _101
REMARK   41  A    between atoms: _101  and  _102
REMARK   42  A    between atoms: _101  and  _104
REMARK   43  A    between atoms: _107  and  _109
REMARK   44  A    between atoms: _109  and  _110
REMARK   45  A    between atoms: _109  and  _112
REMARK   46  A    between atoms: _112  and  _113
REMARK   47  A    between atoms: _119  and  _121
REMARK   48  A    between atoms: _121  and  _122
REMARK   49  A    between atoms: _121  and  _124
REMARK   50  A    between atoms: _124  and  _125
REMARK   51  A    between atoms: _128  and  _130
REMARK   52  A    between atoms: _130  and  _131
REMARK   53  A    between atoms: _130  and  _133
REMARK   54  A    between atoms: _133  and  _134
REMARK   55  A    between atoms: _137  and  _139
REMARK   56  A    between atoms: _139  and  _140
REMARK   57  A    between atoms: _142  and  _144
REMARK   58  A    between atoms: _144  and  _145
REMARK   59  A    between atoms: _144  and  _147
REMARK   60  A    between atoms: _147  and  _148
REMARK   61  A    between atoms: _150  and  _152
REMARK   62  A    between atoms: _152  and  _153
REMARK   63  A    between atoms: _152  and  _155
REMARK   64  A    between atoms: _155  and  _156
REMARK   65  A    between atoms: _158  and  _160
REMARK   66  A    between atoms: _160  and  _161
REMARK   67  A    between atoms: _160  and  _163
REMARK   68  A    between atoms: _163  and  _164
REMARK   69  A    between atoms: _174  and  _176
REMARK   70  A    between atoms: _176  and  _177
REMARK   71  A    between atoms: _176  and  _179
REMARK   72  A    between atoms: _179  and  _180
REMARK   73  A    between atoms: _180  and  _181
REMARK   74  A    between atoms: _181  and  _182
REMARK   75  A    between atoms: _191  and  _193
REMARK   76  A    between atoms: _193  and  _194
REMARK   77  A    between atoms: _193  and  _196
REMARK   78  A    between atoms: _196  and  _197
REMARK   79  A    between atoms: _202  and  _203
REMARK   80  A    between atoms: _205  and  _207
REMARK   81  A    between atoms: _207  and  _208
REMARK   82  A    between atoms: _207  and  _210
REMARK   83  A    between atoms: _210  and  _211
REMARK   84  A    between atoms: _213  and  _215
REMARK   85  A    between atoms: _215  and  _216
REMARK   86  A    between atoms: _215  and  _218
REMARK   87  A    between atoms: _218  and  _219
REMARK   88  A    between atoms: _222  and  _224
REMARK   89  A    between atoms: _224  and  _225
REMARK   90  A    between atoms: _227  and  _229
REMARK   91  A    between atoms: _229  and  _230
REMARK   92  A    between atoms: _229  and  _232
REMARK   93  A    between atoms: _232  and  _233
REMARK   94  A    between atoms: _236  and  _238
REMARK   95  A    between atoms: _238  and  _239
REMARK   96  A    between atoms: _238  and  _241
REMARK   97  A    between atoms: _244  and  _246
REMARK   98  A    between atoms: _246  and  _247
REMARK   99  A    between atoms: _250  and  _252
REMARK  100  A    between atoms: _252  and  _253
REMARK  101  A    between atoms: _252  and  _255
REMARK  102  A    between atoms: _255  and  _256
REMARK  103  A    between atoms: _260  and  _261
REMARK  104  A    between atoms: _266  and  _268
REMARK  105  A    between atoms: _268  and  _269
REMARK  106  A    between atoms: _268  and  _271
REMARK  107  A    between atoms: _271  and  _272
REMARK  108  A    between atoms: _278  and  _280
REMARK  109  A    between atoms: _280  and  _281
REMARK  110  A    between atoms: _280  and  _283
REMARK  111  A    between atoms: _283  and  _284
REMARK  112  A    between atoms: _284  and  _285
REMARK  113  A    between atoms: _287  and  _289
REMARK  114  A    between atoms: _289  and  _290
REMARK  115  A    between atoms: _289  and  _292
REMARK  116  A    between atoms: _292  and  _293
REMARK  117  A    between atoms: _296  and  _298
REMARK  118  A    between atoms: _298  and  _299
REMARK  119  A    between atoms: _302  and  _304
REMARK  120  A    between atoms: _304  and  _305
REMARK  121  A    between atoms: _304  and  _307
REMARK  122  A    between atoms: _307  and  _308
REMARK  123  A    between atoms: _308  and  _309
REMARK  124  A    between atoms: _312  and  _314
REMARK  125  A    between atoms: _314  and  _315
REMARK  126  A    between atoms: _314  and  _317
REMARK  127  A    between atoms: _317  and  _318
REMARK  128  A    between atoms: _324  and  _326
REMARK  129  A    between atoms: _326  and  _327
REMARK  130  A    between atoms: _329  and  _331
REMARK  131  A    between atoms: _331  and  _332
REMARK  132  A    between atoms: _331  and  _334
REMARK  133  A    between atoms: _337  and  _339
REMARK  134  A    between atoms: _339  and  _340
REMARK  135  A    between atoms: _339  and  _342
REMARK  136  A    between atoms: _345  and  _347
REMARK  137  A    between atoms: _347  and  _348
REMARK  138  A    between atoms: _350  and  _352
REMARK  139  A    between atoms: _352  and  _353
REMARK  140  A    between atoms: _352  and  _355
REMARK  141  A    between atoms: _355  and  _356
REMARK  142  A    between atoms: _356  and  _357
REMARK  143  A    between atoms: _359  and  _361
REMARK  144  A    between atoms: _361  and  _362
REMARK  145  A    between atoms: _361  and  _364
REMARK  146  A    between atoms: _364  and  _365
REMARK  147  A    between atoms: _371  and  _373
REMARK  148  A    between atoms: _373  and  _374
REMARK  149  A    between atoms: _373  and  _376
REMARK  150  A    between atoms: _376  and  _377
REMARK  151  A    between atoms: _382  and  _383
REMARK  152  A    between atoms: _385  and  _387
REMARK  153  A    between atoms: _387  and  _388
REMARK  154  A    between atoms: _387  and  _390
REMARK  155  A    between atoms: _390  and  _391
REMARK  156  A    between atoms: _394  and  _396
REMARK  157  A    between atoms: _396  and  _397
REMARK  158  A    between atoms: _396  and  _399
REMARK  159  A    between atoms: _402  and  _404
REMARK  160  A    between atoms: _404  and  _405
REMARK  161  A    between atoms: _404  and  _407
REMARK  162  A    between atoms: _407  and  _408
REMARK  163  A    between atoms: _411  and  _413
REMARK  164  A    between atoms: _413  and  _414
REMARK  165  A    between atoms: _413  and  _416
REMARK  166  A    between atoms: _416  and  _417
REMARK  167  A    between atoms: _420  and  _422
REMARK  168  A    between atoms: _422  and  _423
REMARK  169  A    between atoms: _425  and  _427
REMARK  170  A    between atoms: _427  and  _428
REMARK  171  A    between atoms: _431  and  _433
REMARK  172  A    between atoms: _433  and  _434
REMARK  173  A    between atoms: _433  and  _436
REMARK  174  A    between atoms: _436  and  _437
REMARK  175  A    between atoms: _439  and  _441
REMARK  176  A    between atoms: _441  and  _442
REMARK  177  A    between atoms: _441  and  _444
REMARK  178  A    between atoms: _444  and  _445
REMARK  179  A    between atoms: _450  and  _451
REMARK  180  A    between atoms: _453  and  _455
REMARK  181  A    between atoms: _455  and  _456
REMARK  182  A    between atoms: _455  and  _458
REMARK  183  A    between atoms: _458  and  _459
REMARK  184  A    between atoms: _462  and  _464
REMARK  185  A    between atoms: _464  and  _465
REMARK  186  A    between atoms: _464  and  _467
REMARK  187  A    between atoms: _467  and  _468
REMARK  188  A    between atoms: _470  and  _472
REMARK  189  A    between atoms: _472  and  _473
REMARK  190  A    between atoms: _475  and  _477
REMARK  191  A    between atoms: _477  and  _478
REMARK  192  A    between atoms: _477  and  _480
REMARK  193  A    between atoms: _480  and  _481
REMARK  194  A    between atoms: _481  and  _482
REMARK  195  A    between atoms: _482  and  _483
REMARK  196  A    between atoms: _483  and  _484
REMARK  197  A    between atoms: _488  and  _490
REMARK  198  A    between atoms: _490  and  _491
REMARK  199  A    between atoms: _490  and  _493
REMARK  200  A    between atoms: _493  and  _494
REMARK  201  A    between atoms: _500  and  _502
REMARK  202  A    between atoms: _502  and  _503
REMARK  203  A    between atoms: _502  and  _505
REMARK  204  A    between atoms: _505  and  _506
REMARK  205  A    between atoms: _509  and  _511
REMARK  206  A    between atoms: _511  and  _512
REMARK  207  A    between atoms: _511  and  _514
REMARK  208  A    between atoms: _514  and  _515
REMARK  209  A    between atoms: _520  and  _521
REMARK  210  A    between atoms: _523  and  _525
REMARK  211  A    between atoms: _525  and  _526
REMARK  212  A    between atoms: _529  and  _531
REMARK  213  A    between atoms: _531  and  _532
REMARK  214  A    between atoms: _531  and  _534
REMARK  215  A    between atoms: _534  and  _535
REMARK  216  A    between atoms: _538  and  _540
REMARK  217  A    between atoms: _540  and  _541
REMARK  218  A    between atoms: _540  and  _543
REMARK  219  A    between atoms: _543  and  _544
REMARK  220  A    between atoms: _549  and  _551
REMARK  221  A    between atoms: _551  and  _552
REMARK  222  A    between atoms: _555  and  _557
REMARK  223  A    between atoms: _557  and  _558
REMARK  224  A    between atoms: _557  and  _560
REMARK  225  A    between atoms: _560  and  _561
REMARK  226  A    between atoms: _561  and  _562
REMARK  227  A    between atoms: _564  and  _566
REMARK  228  A    between atoms: _566  and  _567
REMARK  229  A    between atoms: _566  and  _569
REMARK  230  A    between atoms: _569  and  _570
REMARK  231  A    between atoms: _573  and  _575
REMARK  232  A    between atoms: _575  and  _576
REMARK  233  A    between atoms: _575  and  _578
REMARK  234  A    between atoms: _578  and  _579
REMARK  235  A    between atoms: _582  and  _584
REMARK  236  A    between atoms: _584  and  _585
REMARK  237  A    between atoms: _588  and  _590
REMARK  238  A    between atoms: _590  and  _591
REMARK  239  A    between atoms: _590  and  _593
REMARK  240  A    between atoms: _593  and  _594
REMARK  241  A    between atoms: _597  and  _599
REMARK  242  A    between atoms: _599  and  _600
REMARK  243  A    between atoms: _602  and  _604
REMARK  244  A    between atoms: _604  and  _605
REMARK  245  A    between atoms: _608  and  _610
REMARK  246  A    between atoms: _610  and  _611
REMARK  247  A    between atoms: _610  and  _613
REMARK  248  A    between atoms: _613  and  _614
REMARK  249  A    between atoms: _617  and  _619
REMARK  250  A    between atoms: _619  and  _620
REMARK  251  A    between atoms: _619  and  _622
REMARK  252  A    between atoms: _622  and  _623
REMARK  253  A    between atoms: _626  and  _628
REMARK  254  A    between atoms: _628  and  _629
REMARK  255  A    between atoms: _628  and  _631
REMARK  256  A    between atoms: _631  and  _632
REMARK  257  A    between atoms: _632  and  _633
REMARK  258  A    between atoms: _633  and  _634
REMARK  259  A    between atoms: _643  and  _645
REMARK  260  A    between atoms: _645  and  _646
REMARK  261  A    between atoms: _645  and  _648
REMARK  262  A    between atoms: _648  and  _649
REMARK  263  A    between atoms: _649  and  _650
REMARK  264  A    between atoms: _650  and  _651
REMARK  265  A    between atoms: _651  and  _652
REMARK  266  A    between atoms: _656  and  _658
REMARK  267  A    between atoms: _658  and  _659
REMARK  268  A    between atoms: _658  and  _661
REMARK  269  A    between atoms: _661  and  _662
REMARK  270  A    between atoms: _667  and  _669
REMARK  271  A    between atoms: _669  and  _670
REMARK  272  A    between atoms: _669  and  _672
REMARK  273  A    between atoms: _672  and  _673
REMARK  274  A    between atoms: _673  and  _674
REMARK  275  A    between atoms: _677  and  _679
REMARK  276  A    between atoms: _679  and  _680
REMARK  277  A    between atoms: _679  and  _682
REMARK  278  A    between atoms: _682  and  _683
REMARK  279  A    between atoms: _686  and  _688
REMARK  280  A    between atoms: _688  and  _689
REMARK  281  A    between atoms: _688  and  _691
REMARK  282  A    between atoms: _691  and  _692
REMARK                            x       y       z     vdW  Elec       q    Type
REMARK                         _______ _______ _______ _____ _____    ______ ____
ROOT
ATOM      1  CA  GLY A   3     -50.477 -14.809 -39.908  0.00  0.00    +0.176 C 
ENDROOT
BRANCH   1   3
ATOM      2  C   LEU A   2     -51.315 -14.098 -42.096  0.00  0.00    +0.241 C 
ATOM      3  N   GLY A   3     -50.642 -14.963 -41.341  0.00  0.00    -0.295 N 
ATOM      4  H   GLY A   3     -50.213 -15.791 -41.801  0.00  0.00    +0.150 HD
ATOM      5  O   LEU A   2     -51.769 -13.036 -41.673  0.00  0.00    -0.273 OA
BRANCH   2   6
ATOM      6  CA  LEU A   2     -51.495 -14.505 -43.552  0.00  0.00    +0.149 C 
BRANCH   6   8
ATOM      7  C   ALA A   1     -52.974 -16.433 -43.806  0.00  0.00    +0.238 C 
ATOM      8  N   LEU A   2     -52.813 -15.119 -43.692  0.00  0.00    -0.297 N 
ATOM      9  H   LEU A   2     -53.654 -14.507 -43.703  0.00  0.00    +0.150 HD
ATOM     10  O   ALA A   1     -52.036 -17.240 -43.836  0.00  0.00    -0.274 OA
BRANCH   7  11
ATOM     11  CA  ALA A   1     -54.402 -16.911 -43.913  0.00  0.00    +0.145 C 
ATOM     12  CB  ALA A   1     -54.837 -17.661 -42.647  0.00  0.00    +0.028 C 
BRANCH  11  13
ATOM     13  N   ALA A   1     -54.485 -17.765 -45.073  0.00  0.00    -0.238 NA
ATOM     14  H   ALA A   1     -53.817 -18.555 -45.177  0.00  0.00    +0.142 HD
ENDBRANCH  11  13
ENDBRANCH   7  11
ENDBRANCH   6   8
BRANCH   6  15
ATOM     15  CB  LEU A   2     -51.345 -13.313 -44.513  0.00  0.00    +0.029 C 
BRANCH  15  16
ATOM     16  CG  LEU A   2     -51.490 -13.656 -46.013  0.00  0.00    +0.002 C 
ATOM     17  CD2 LEU A   2     -50.386 -14.626 -46.502  0.00  0.00    +0.000 C 
ATOM     18  CD1 LEU A   2     -51.529 -12.419 -46.897  0.00  0.00    +0.000 C 
ENDBRANCH  15  16
ENDBRANCH   6  15
ENDBRANCH   2   6
ENDBRANCH   1   3
BRANCH   1  19
ATOM     19  C   GLY A   3     -49.077 -14.337 -39.576  0.00  0.00    +0.243 C 
ATOM     20  N   ALA A   4     -48.592 -14.707 -38.400  0.00  0.00    -0.297 N 
ATOM     21  H   ALA A   4     -49.103 -15.416 -37.837  0.00  0.00    +0.150 HD
ATOM     22  O   GLY A   3     -48.435 -13.660 -40.379  0.00  0.00    -0.273 OA
BRANCH  20  23
ATOM     23  CA  ALA A   4     -47.347 -14.134 -37.879  0.00  0.00    +0.149 C 
ATOM     24  CB  ALA A   4     -47.009 -14.740 -36.514  0.00  0.00    +0.031 C 
BRANCH  23  25
ATOM     25  C   ALA A   4     -46.176 -14.268 -38.852  0.00  0.00    +0.241 C 
ATOM     26  O   ALA A   4     -45.344 -13.361 -38.937  0.00  0.00    -0.273 OA
ATOM     27  N   THR A   5     -46.127 -15.377 -39.610  0.00  0.00    -0.296 N 
ATOM     28  H   THR A   5     -46.884 -16.085 -39.526  0.00  0.00    +0.150 HD
BRANCH  27  29
ATOM     29  CA  THR A   5     -45.021 -15.611 -40.559  0.00  0.00    +0.164 C 
BRANCH  29  30
ATOM     30  CB  THR A   5     -45.176 -16.952 -41.312  0.00  0.00    +0.136 C 
ATOM     31  CG2 THR A   5     -43.966 -17.212 -42.219  0.00  0.00    +0.034 C 
BRANCH  30  32
ATOM     32  OG1 THR A   5     -45.286 -18.010 -40.367  0.00  0.00    -0.382 OA
ATOM     33  HG1 THR A   5     -45.385 -18.870 -40.847  0.00  0.00    +0.210 HD
ENDBRANCH  30  32
ENDBRANCH  29  30
BRANCH  29  34
ATOM     34  C   THR A   5     -44.938 -14.471 -41.578  0.00  0.00    +0.229 C 
ATOM     35  O   THR A   5     -43.849 -13.948 -41.854  0.00  0.00    -0.286 OA
ENDBRANCH  29  34
ENDBRANCH  27  29
ENDBRANCH  23  25
ENDBRANCH  20  23
ENDBRANCH   1  19
TORSDOF 14
REMARK  Name = ../refined-set-2016/2il2/2il2_pocket.pdb
REMARK  282 active torsions:
REMARK  status: ('A' for Active; 'I' for Inactive)
REMARK    1  A    between atoms: _1  and  _3
REMARK    2  A    between atoms: _3  and  _4
REMARK    3  A    between atoms: _3  and  _6
REMARK    4  A    between atoms: _6  and  _7
REMARK    5  A    between atoms: _10  and  _12
REMARK    6  A    between atoms: _12  and  _13
REMARK    7  A    between atoms: _12  and  _15
REMARK    8  A    between atoms: _15  and  _16
REMARK    9  A    between atoms: _19  and  _21
REMARK   10  A    between atoms: _21  and  _22
REMARK   11  A    between atoms: _21  and  _24
REMARK   12  A    between atoms: _24  and  _25
REMARK   13  A    between atoms: _30  and  _31
REMARK   14  A    between atoms: _33  and  _35
REMARK   15  A    between atoms: _35  and  _36
REMARK   16  A    between atoms: _35  and  _38
REMARK   17  A    between atoms: _38  and  _39
REMARK   18  A    between atoms: _42  and  _44
REMARK   19  A    between atoms: _44  and  _45
REMARK   20  A    between atoms: _44  and  _47
REMARK   21  A    between atoms: _47  and  _48
REMARK   22  A    between atoms: _51  and  _53
REMARK   23  A    between atoms: _53  and  _54
REMARK   24  A    between atoms: _53  and  _56
REMARK   25  A    between atoms: _56  and  _57
REMARK   26  A    between atoms: _57  and  _58
REMARK   27  A    between atoms: _63  and  _65
REMARK   28  A    between atoms: _65  and  _66
REMARK   29  A    between atoms: _65  and  _68
REMARK   30  A    between atoms: _68  and  _69
REMARK   31  A    between atoms: _74  and  _75
REMARK   32  A    between atoms: _77  and  _79
REMARK   33  A    between atoms: _79  and  _80
REMARK   34  A    between atoms: _79  and  _82
REMARK   35  A    between atoms: _82  and  _83
REMARK   36  A    between atoms: _88  and  _89
REMARK   37  A    between atoms: _91  and  _93
REMARK   38  A    between atoms: _93  and  _94
REMARK   39  A    between atoms: _93  and  _96
REMARK   40  A    between atoms: _99  and  _101
REMARK   41  A    between atoms: _101  and  _102
REMARK   42  A    between atoms: _101  and  _104
REMARK   43  A    between atoms: _107  and  _109
REMARK   44  A    between atoms: _109  and  _110
REMARK   45  A    between atoms: _109  and  _112
REMARK   46  A    between atoms: _112  and  _113
REMARK   47  A    between atoms: _119  and  _121
REMARK   48  A    between atoms: _121  and  _122
REMARK   49  A    between atoms: _121  and  _124
REMARK   50  A    between atoms: _124  and  _125
REMARK   51  A    between atoms: _128  and  _130
REMARK   52  A    between atoms: _130  and  _131
REMARK   53  A    between atoms: _130  and  _133
REMARK   54  A    between atoms: _133  and  _134
REMARK   55  A    between atoms: _137  and  _139
REMARK   56  A    between atoms: _139  and  _140
REMARK   57  A    between atoms: _142  and  _144
REMARK   58  A    between atoms: _144  and  _145
REMARK   59  A    between atoms: _144  and  _147
REMARK   60  A    between atoms: _147  and  _148
REMARK   61  A    between atoms: _150  and  _152
REMARK   62  A    between atoms: _152  and  _153
REMARK   63  A    between atoms: _152  and  _155
REMARK   64  A    between atoms: _155  and  _156
REMARK   65  A    between atoms: _158  and  _160
REMARK   66  A    between atoms: _160  and  _161
REMARK   67  A    between atoms: _160  and  _163
REMARK   68  A    between atoms: _163  and  _164
REMARK   69  A    between atoms: _174  and  _176
REMARK   70  A    between atoms: _176  and  _177
REMARK   71  A    between atoms: _176  and  _179
REMARK   72  A    between atoms: _179  and  _180
REMARK   73  A    between atoms: _180  and  _181
REMARK   74  A    between atoms: _181  and  _182
REMARK   75  A    between atoms: _191  and  _193
REMARK   76  A    between atoms: _193  and  _194
REMARK   77  A    between atoms: _193  and  _196
REMARK   78  A    between atoms: _196  and  _197
REMARK   79  A    between atoms: _202  and  _203
REMARK   80  A    between atoms: _205  and  _207
REMARK   81  A    between atoms: _207  and  _208
REMARK   82  A    between atoms: _207  and  _210
REMARK   83  A    between atoms: _210  and  _211
REMARK   84  A    between atoms: _213  and  _215
REMARK   85  A    between atoms: _215  and  _216
REMARK   86  A    between atoms: _215  and  _218
REMARK   87  A    between atoms: _218  and  _219
REMARK   88  A    between atoms: _222  and  _224
REMARK   89  A    between atoms: _224  and  _225
REMARK   90  A    between atoms: _227  and  _229
REMARK   91  A    between atoms: _229  and  _230
REMARK   92  A    between atoms: _229  and  _232
REMARK   93  A    between atoms: _232  and  _233
REMARK   94  A    between atoms: _236  and  _238
REMARK   95  A    between atoms: _238  and  _239
REMARK   96  A    between atoms: _238  and  _241
REMARK   97  A    between atoms: _244  and  _246
REMARK   98  A    between atoms: _246  and  _247
REMARK   99  A    between atoms: _250  and  _252
REMARK  100  A    between atoms: _252  and  _253
REMARK  101  A    between atoms: _252  and  _255
REMARK  102  A    between atoms: _255  and  _256
REMARK  103  A    between atoms: _260  and  _261
REMARK  104  A    between atoms: _266  and  _268
REMARK  105  A    between atoms: _268  and  _269
REMARK  106  A    between atoms: _268  and  _271
REMARK  107  A    between atoms: _271  and  _272
REMARK  108  A    between atoms: _278  and  _280
REMARK  109  A    between atoms: _280  and  _281
REMARK  110  A    between atoms: _280  and  _283
REMARK  111  A    between atoms: _283  and  _284
REMARK  112  A    between atoms: _284  and  _285
REMARK  113  A    between atoms: _287  and  _289
REMARK  114  A    between atoms: _289  and  _290
REMARK  115  A    between atoms: _289  and  _292
REMARK  116  A    between atoms: _292  and  _293
REMARK  117  A    between atoms: _296  and  _298
REMARK  118  A    between atoms: _298  and  _299
REMARK  119  A    between atoms: _302  and  _304
REMARK  120  A    between atoms: _304  and  _305
REMARK  121  A    between atoms: _304  and  _307
REMARK  122  A    between atoms: _307  and  _308
REMARK  123  A    between atoms: _308  and  _309
REMARK  124  A    between atoms: _312  and  _314
REMARK  125  A    between atoms: _314  and  _315
REMARK  126  A    between atoms: _314  and  _317
REMARK  127  A    between atoms: _317  and  _318
REMARK  128  A    between atoms: _324  and  _326
REMARK  129  A    between atoms: _326  and  _327
REMARK  130  A    between atoms: _329  and  _331
REMARK  131  A    between atoms: _331  and  _332
REMARK  132  A    between atoms: _331  and  _334
REMARK  133  A    between atoms: _337  and  _339
REMARK  134  A    between atoms: _339  and  _340
REMARK  135  A    between atoms: _339  and  _342
REMARK  136  A    between atoms: _345  and  _347
REMARK  137  A    between atoms: _347  and  _348
REMARK  138  A    between atoms: _350  and  _352
REMARK  139  A    between atoms: _352  and  _353
REMARK  140  A    between atoms: _352  and  _355
REMARK  141  A    between atoms: _355  and  _356
REMARK  142  A    between atoms: _356  and  _357
REMARK  143  A    between atoms: _359  and  _361
REMARK  144  A    between atoms: _361  and  _362
REMARK  145  A    between atoms: _361  and  _364
REMARK  146  A    between atoms: _364  and  _365
REMARK  147  A    between atoms: _371  and  _373
REMARK  148  A    between atoms: _373  and  _374
REMARK  149  A    between atoms: _373  and  _376
REMARK  150  A    between atoms: _376  and  _377
REMARK  151  A    between atoms: _382  and  _383
REMARK  152  A    between atoms: _385  and  _387
REMARK  153  A    between atoms: _387  and  _388
REMARK  154  A    between atoms: _387  and  _390
REMARK  155  A    between atoms: _390  and  _391
REMARK  156  A    between atoms: _394  and  _396
REMARK  157  A    between atoms: _396  and  _397
REMARK  158  A    between atoms: _396  and  _399
REMARK  159  A    between atoms: _402  and  _404
REMARK  160  A    between atoms: _404  and  _405
REMARK  161  A    between atoms: _404  and  _407
REMARK  162  A    between atoms: _407  and  _408
REMARK  163  A    between atoms: _411  and  _413
REMARK  164  A    between atoms: _413  and  _414
REMARK  165  A    between atoms: _413  and  _416
REMARK  166  A    between atoms: _416  and  _417
REMARK  167  A    between atoms: _420  and  _422
REMARK  168  A    between atoms: _422  and  _423
REMARK  169  A    between atoms: _425  and  _427
REMARK  170  A    between atoms: _427  and  _428
REMARK  171  A    between atoms: _431  and  _433
REMARK  172  A    between atoms: _433  and  _434
REMARK  173  A    between atoms: _433  and  _436
REMARK  174  A    between atoms: _436  and  _437
REMARK  175  A    between atoms: _439  and  _441
REMARK  176  A    between atoms: _441  and  _442
REMARK  177  A    between atoms: _441  and  _444
REMARK  178  A    between atoms: _444  and  _445
REMARK  179  A    between atoms: _450  and  _451
REMARK  180  A    between atoms: _453  and  _455
REMARK  181  A    between atoms: _455  and  _456
REMARK  182  A    between atoms: _455  and  _458
REMARK  183  A    between atoms: _458  and  _459
REMARK  184  A    between atoms: _462  and  _464
REMARK  185  A    between atoms: _464  and  _465
REMARK  186  A    between atoms: _464  and  _467
REMARK  187  A    between atoms: _467  and  _468
REMARK  188  A    between atoms: _470  and  _472
REMARK  189  A    between atoms: _472  and  _473
REMARK  190  A    between atoms: _475  and  _477
REMARK  191  A    between atoms: _477  and  _478
REMARK  192  A    between atoms: _477  and  _480
REMARK  193  A    between atoms: _480  and  _481
REMARK  194  A    between atoms: _481  and  _482
REMARK  195  A    between atoms: _482  and  _483
REMARK  196  A    between atoms: _483  and  _484
REMARK  197  A    between atoms: _488  and  _490
REMARK  198  A    between atoms: _490  and  _491
REMARK  199  A    between atoms: _490  and  _493
REMARK  200  A    between atoms: _493  and  _494
REMARK  201  A    between atoms: _500  and  _502
REMARK  202  A    between atoms: _502  and  _503
REMARK  203  A    between atoms: _502  and  _505
REMARK  204  A    between atoms: _505  and  _506
REMARK  205  A    between atoms: _509  and  _511
REMARK  206  A    between atoms: _511  and  _512
REMARK  207  A    between atoms: _511  and  _514
REMARK  208  A    between atoms: _514  and  _515
REMARK  209  A    between atoms: _520  and  _521
REMARK  210  A    between atoms: _523  and  _525
REMARK  211  A    between atoms: _525  and  _526
REMARK  212  A    between atoms: _529  and  _531
REMARK  213  A    between atoms: _531  and  _532
REMARK  214  A    between atoms: _531  and  _534
REMARK  215  A    between atoms: _534  and  _535
REMARK  216  A    between atoms: _538  and  _540
REMARK  217  A    between atoms: _540  and  _541
REMARK  218  A    between atoms: _540  and  _543
REMARK  219  A    between atoms: _543  and  _544
REMARK  220  A    between atoms: _549  and  _551
REMARK  221  A    between atoms: _551  and  _552
REMARK  222  A    between atoms: _555  and  _557
REMARK  223  A    between atoms: _557  and  _558
REMARK  224  A    between atoms: _557  and  _560
REMARK  225  A    between atoms: _560  and  _561
REMARK  226  A    between atoms: _561  and  _562
REMARK  227  A    between atoms: _564  and  _566
REMARK  228  A    between atoms: _566  and  _567
REMARK  229  A    between atoms: _566  and  _569
REMARK  230  A    between atoms: _569  and  _570
REMARK  231  A    between atoms: _573  and  _575
REMARK  232  A    between atoms: _575  and  _576
REMARK  233  A    between atoms: _575  and  _578
REMARK  234  A    between atoms: _578  and  _579
REMARK  235  A    between atoms: _582  and  _584
REMARK  236  A    between atoms: _584  and  _585
REMARK  237  A    between atoms: _588  and  _590
REMARK  238  A    between atoms: _590  and  _591
REMARK  239  A    between atoms: _590  and  _593
REMARK  240  A    between atoms: _593  and  _594
REMARK  241  A    between atoms: _597  and  _599
REMARK  242  A    between atoms: _599  and  _600
REMARK  243  A    between atoms: _602  and  _604
REMARK  244  A    between atoms: _604  and  _605
REMARK  245  A    between atoms: _608  and  _610
REMARK  246  A    between atoms: _610  and  _611
REMARK  247  A    between atoms: _610  and  _613
REMARK  248  A    between atoms: _613  and  _614
REMARK  249  A    between atoms: _617  and  _619
REMARK  250  A    between atoms: _619  and  _620
REMARK  251  A    between atoms: _619  and  _622
REMARK  252  A    between atoms: _622  and  _623
REMARK  253  A    between atoms: _626  and  _628
REMARK  254  A    between atoms: _628  and  _629
REMARK  255  A    between atoms: _628  and  _631
REMARK  256  A    between atoms: _631  and  _632
REMARK  257  A    between atoms: _632  and  _633
REMARK  258  A    between atoms: _633  and  _634
REMARK  259  A    between atoms: _643  and  _645
REMARK  260  A    between atoms: _645  and  _646
REMARK  261  A    between atoms: _645  and  _648
REMARK  262  A    between atoms: _648  and  _649
REMARK  263  A    between atoms: _649  and  _650
REMARK  264  A    between atoms: _650  and  _651
REMARK  265  A    between atoms: _651  and  _652
REMARK  266  A    between atoms: _656  and  _658
REMARK  267  A    between atoms: _658  and  _659
REMARK  268  A    between atoms: _658  and  _661
REMARK  269  A    between atoms: _661  and  _662
REMARK  270  A    between atoms: _667  and  _669
REMARK  271  A    between atoms: _669  and  _670
REMARK  272  A    between atoms: _669  and  _672
REMARK  273  A    between atoms: _672  and  _673
REMARK  274  A    between atoms: _673  and  _674
REMARK  275  A    between atoms: _677  and  _679
REMARK  276  A    between atoms: _679  and  _680
REMARK  277  A    between atoms: _679  and  _682
REMARK  278  A    between atoms: _682  and  _683
REMARK  279  A    between atoms: _686  and  _688
REMARK  280  A    between atoms: _688  and  _689
REMARK  281  A    between atoms: _688  and  _691
REMARK  282  A    between atoms: _691  and  _692
REMARK                            x       y       z     vdW  Elec       q    Type
REMARK                         _______ _______ _______ _____ _____    ______ ____
ROOT
ATOM      1  CA  ARG A   2     -42.839 -10.651 -39.272  0.00  0.00    +0.137 C 
ENDROOT
BRANCH   1   3
ATOM      2  C   ILE A   1     -45.049  -9.855 -39.947  0.00  0.00    +0.238 C 
ATOM      3  N   ARG A   2     -44.257 -10.875 -39.583  0.00  0.00    -0.298 N 
ATOM      4  H   ARG A   2     -44.652 -11.835 -39.520  0.00  0.00    +0.150 HD
ATOM      5  O   ILE A   1     -44.661  -8.672 -39.945  0.00  0.00    -0.274 OA
BRANCH   2   6
ATOM      6  CA  ILE A   1     -46.465 -10.178 -40.416  0.00  0.00    +0.145 C 
BRANCH   6   7
ATOM      7  N   ILE A   1     -46.549 -11.440 -41.170  0.00  0.00    -0.238 NA
ATOM      8  H   ILE A   1     -47.106 -12.221 -40.769  0.00  0.00    +0.142 HD
ENDBRANCH   6   7
BRANCH   6   9
ATOM      9  CB  ILE A   1     -47.486 -10.140 -39.249  0.00  0.00    +0.025 C 
ATOM     10  CG2 ILE A   1     -47.372  -8.828 -38.431  0.00  0.00    +0.002 C 
BRANCH   9  11
ATOM     11  CG1 ILE A   1     -48.905 -10.233 -39.798  0.00  0.00    +0.002 C 
ATOM     12  CD1 ILE A   1     -49.960 -10.551 -38.795  0.00  0.00    +0.000 C 
ENDBRANCH   9  11
ENDBRANCH   6   9
ENDBRANCH   2   6
ENDBRANCH   1   3
BRANCH   1  13
ATOM     13  C   ARG A   2     -42.107  -9.960 -40.394  0.00  0.00    +0.227 C 
ATOM     14  O   ARG A   2     -41.201  -9.175 -40.146  0.00  0.00    -0.286 OA
ENDBRANCH   1  13
BRANCH   1  15
ATOM     15  CB  ARG A   2     -42.080 -11.954 -38.935  0.00  0.00    +0.031 C 
BRANCH  15  16
ATOM     16  CG  ARG A   2     -42.355 -12.492 -37.547  0.00  0.00    +0.045 C 
BRANCH  16  17
ATOM     17  CD  ARG A   2     -41.399 -13.569 -37.176  0.00  0.00    +0.174 C 
BRANCH  17  18
ATOM     18  NE  ARG A   2     -41.670 -14.840 -37.833  0.00  0.00    -0.265 N 
ATOM     19  CZ  ARG A   2     -42.579 -15.726 -37.432  0.00  0.00    +0.342 C 
ATOM     20  NH2 ARG A   2     -43.351 -15.502 -36.368  0.00  0.00    -0.292 N 
ATOM     21 HH21 ARG A   2     -43.251 -14.618 -35.830  0.00  0.00    +0.255 HD
ATOM     22 HH22 ARG A   2     -44.053 -16.211 -36.077  0.00  0.00    +0.255 HD
ATOM     23  NH1 ARG A   2     -42.700 -16.856 -38.089  0.00  0.00    -0.292 N 
ATOM     24 HH11 ARG A   2     -43.405 -17.559 -37.789  0.00  0.00    +0.255 HD
ATOM     25 HH12 ARG A   2     -42.091 -17.048 -38.910  0.00  0.00    +0.255 HD
ATOM     26  HE  ARG A   2     -41.112 -15.073 -38.679  0.00  0.00    +0.259 HD
ENDBRANCH  17  18
ENDBRANCH  16  17
ENDBRANCH  15  16
ENDBRANCH   1  15
TORSDOF 10
REMARK  Name = ../refined-set-2016/2il2/2il2_pocket.pdb
REMARK  282 active torsions:
REMARK  status: ('A' for Active; 'I' for Inactive)
REMARK    1  A    between atoms: _1  and  _3
REMARK    2  A    between atoms: _3  and  _4
REMARK    3  A    between atoms: _3  and  _6
REMARK    4  A    between atoms: _6  and  _7
REMARK    5  A    between atoms: _10  and  _12
REMARK    6  A    between atoms: _12  and  _13
REMARK    7  A    between atoms: _12  and  _15
REMARK    8  A    between atoms: _15  and  _16
REMARK    9  A    between atoms: _19  and  _21
REMARK   10  A    between atoms: _21  and  _22
REMARK   11  A    between atoms: _21  and  _24
REMARK   12  A    between atoms: _24  and  _25
REMARK   13  A    between atoms: _30  and  _31
REMARK   14  A    between atoms: _33  and  _35
REMARK   15  A    between atoms: _35  and  _36
REMARK   16  A    between atoms: _35  and  _38
REMARK   17  A    between atoms: _38  and  _39
REMARK   18  A    between atoms: _42  and  _44
REMARK   19  A    between atoms: _44  and  _45
REMARK   20  A    between atoms: _44  and  _47
REMARK   21  A    between atoms: _47  and  _48
REMARK   22  A    between atoms: _51  and  _53
REMARK   23  A    between atoms: _53  and  _54
REMARK   24  A    between atoms: _53  and  _56
REMARK   25  A    between atoms: _56  and  _57
REMARK   26  A    between atoms: _57  and  _58
REMARK   27  A    between atoms: _63  and  _65
REMARK   28  A    between atoms: _65  and  _66
REMARK   29  A    between atoms: _65  and  _68
REMARK   30  A    between atoms: _68  and  _69
REMARK   31  A    between atoms: _74  and  _75
REMARK   32  A    between atoms: _77  and  _79
REMARK   33  A    between atoms: _79  and  _80
REMARK   34  A    between atoms: _79  and  _82
REMARK   35  A    between atoms: _82  and  _83
REMARK   36  A    between atoms: _88  and  _89
REMARK   37  A    between atoms: _91  and  _93
REMARK   38  A    between atoms: _93  and  _94
REMARK   39  A    between atoms: _93  and  _96
REMARK   40  A    between atoms: _99  and  _101
REMARK   41  A    between atoms: _101  and  _102
REMARK   42  A    between atoms: _101  and  _104
REMARK   43  A    between atoms: _107  and  _109
REMARK   44  A    between atoms: _109  and  _110
REMARK   45  A    between atoms: _109  and  _112
REMARK   46  A    between atoms: _112  and  _113
REMARK   47  A    between atoms: _119  and  _121
REMARK   48  A    between atoms: _121  and  _122
REMARK   49  A    between atoms: _121  and  _124
REMARK   50  A    between atoms: _124  and  _125
REMARK   51  A    between atoms: _128  and  _130
REMARK   52  A    between atoms: _130  and  _131
REMARK   53  A    between atoms: _130  and  _133
REMARK   54  A    between atoms: _133  and  _134
REMARK   55  A    between atoms: _137  and  _139
REMARK   56  A    between atoms: _139  and  _140
REMARK   57  A    between atoms: _142  and  _144
REMARK   58  A    between atoms: _144  and  _145
REMARK   59  A    between atoms: _144  and  _147
REMARK   60  A    between atoms: _147  and  _148
REMARK   61  A    between atoms: _150  and  _152
REMARK   62  A    between atoms: _152  and  _153
REMARK   63  A    between atoms: _152  and  _155
REMARK   64  A    between atoms: _155  and  _156
REMARK   65  A    between atoms: _158  and  _160
REMARK   66  A    between atoms: _160  and  _161
REMARK   67  A    between atoms: _160  and  _163
REMARK   68  A    between atoms: _163  and  _164
REMARK   69  A    between atoms: _174  and  _176
REMARK   70  A    between atoms: _176  and  _177
REMARK   71  A    between atoms: _176  and  _179
REMARK   72  A    between atoms: _179  and  _180
REMARK   73  A    between atoms: _180  and  _181
REMARK   74  A    between atoms: _181  and  _182
REMARK   75  A    between atoms: _191  and  _193
REMARK   76  A    between atoms: _193  and  _194
REMARK   77  A    between atoms: _193  and  _196
REMARK   78  A    between atoms: _196  and  _197
REMARK   79  A    between atoms: _202  and  _203
REMARK   80  A    between atoms: _205  and  _207
REMARK   81  A    between atoms: _207  and  _208
REMARK   82  A    between atoms: _207  and  _210
REMARK   83  A    between atoms: _210  and  _211
REMARK   84  A    between atoms: _213  and  _215
REMARK   85  A    between atoms: _215  and  _216
REMARK   86  A    between atoms: _215  and  _218
REMARK   87  A    between atoms: _218  and  _219
REMARK   88  A    between atoms: _222  and  _224
REMARK   89  A    between atoms: _224  and  _225
REMARK   90  A    between atoms: _227  and  _229
REMARK   91  A    between atoms: _229  and  _230
REMARK   92  A    between atoms: _229  and  _232
REMARK   93  A    between atoms: _232  and  _233
REMARK   94  A    between atoms: _236  and  _238
REMARK   95  A    between atoms: _238  and  _239
REMARK   96  A    between atoms: _238  and  _241
REMARK   97  A    between atoms: _244  and  _246
REMARK   98  A    between atoms: _246  and  _247
REMARK   99  A    between atoms: _250  and  _252
REMARK  100  A    between atoms: _252  and  _253
REMARK  101  A    between atoms: _252  and  _255
REMARK  102  A    between atoms: _255  and  _256
REMARK  103  A    between atoms: _260  and  _261
REMARK  104  A    between atoms: _266  and  _268
REMARK  105  A    between atoms: _268  and  _269
REMARK  106  A    between atoms: _268  and  _271
REMARK  107  A    between atoms: _271  and  _272
REMARK  108  A    between atoms: _278  and  _280
REMARK  109  A    between atoms: _280  and  _281
REMARK  110  A    between atoms: _280  and  _283
REMARK  111  A    between atoms: _283  and  _284
REMARK  112  A    between atoms: _284  and  _285
REMARK  113  A    between atoms: _287  and  _289
REMARK  114  A    between atoms: _289  and  _290
REMARK  115  A    between atoms: _289  and  _292
REMARK  116  A    between atoms: _292  and  _293
REMARK  117  A    between atoms: _296  and  _298
REMARK  118  A    between atoms: _298  and  _299
REMARK  119  A    between atoms: _302  and  _304
REMARK  120  A    between atoms: _304  and  _305
REMARK  121  A    between atoms: _304  and  _307
REMARK  122  A    between atoms: _307  and  _308
REMARK  123  A    between atoms: _308  and  _309
REMARK  124  A    between atoms: _312  and  _314
REMARK  125  A    between atoms: _314  and  _315
REMARK  126  A    between atoms: _314  and  _317
REMARK  127  A    between atoms: _317  and  _318
REMARK  128  A    between atoms: _324  and  _326
REMARK  129  A    between atoms: _326  and  _327
REMARK  130  A    between atoms: _329  and  _331
REMARK  131  A    between atoms: _331  and  _332
REMARK  132  A    between atoms: _331  and  _334
REMARK  133  A    between atoms: _337  and  _339
REMARK  134  A    between atoms: _339  and  _340
REMARK  135  A    between atoms: _339  and  _342
REMARK  136  A    between atoms: _345  and  _347
REMARK  137  A    between atoms: _347  and  _348
REMARK  138  A    between atoms: _350  and  _352
REMARK  139  A    between atoms: _352  and  _353
REMARK  140  A    between atoms: _352  and  _355
REMARK  141  A    between atoms: _355  and  _356
REMARK  142  A    between atoms: _356  and  _357
REMARK  143  A    between atoms: _359  and  _361
REMARK  144  A    between atoms: _361  and  _362
REMARK  145  A    between atoms: _361  and  _364
REMARK  146  A    between atoms: _364  and  _365
REMARK  147  A    between atoms: _371  and  _373
REMARK  148  A    between atoms: _373  and  _374
REMARK  149  A    between atoms: _373  and  _376
REMARK  150  A    between atoms: _376  and  _377
REMARK  151  A    between atoms: _382  and  _383
REMARK  152  A    between atoms: _385  and  _387
REMARK  153  A    between atoms: _387  and  _388
REMARK  154  A    between atoms: _387  and  _390
REMARK  155  A    between atoms: _390  and  _391
REMARK  156  A    between atoms: _394  and  _396
REMARK  157  A    between atoms: _396  and  _397
REMARK  158  A    between atoms: _396  and  _399
REMARK  159  A    between atoms: _402  and  _404
REMARK  160  A    between atoms: _404  and  _405
REMARK  161  A    between atoms: _404  and  _407
REMARK  162  A    between atoms: _407  and  _408
REMARK  163  A    between atoms: _411  and  _413
REMARK  164  A    between atoms: _413  and  _414
REMARK  165  A    between atoms: _413  and  _416
REMARK  166  A    between atoms: _416  and  _417
REMARK  167  A    between atoms: _420  and  _422
REMARK  168  A    between atoms: _422  and  _423
REMARK  169  A    between atoms: _425  and  _427
REMARK  170  A    between atoms: _427  and  _428
REMARK  171  A    between atoms: _431  and  _433
REMARK  172  A    between atoms: _433  and  _434
REMARK  173  A    between atoms: _433  and  _436
REMARK  174  A    between atoms: _436  and  _437
REMARK  175  A    between atoms: _439  and  _441
REMARK  176  A    between atoms: _441  and  _442
REMARK  177  A    between atoms: _441  and  _444
REMARK  178  A    between atoms: _444  and  _445
REMARK  179  A    between atoms: _450  and  _451
REMARK  180  A    between atoms: _453  and  _455
REMARK  181  A    between atoms: _455  and  _456
REMARK  182  A    between atoms: _455  and  _458
REMARK  183  A    between atoms: _458  and  _459
REMARK  184  A    between atoms: _462  and  _464
REMARK  185  A    between atoms: _464  and  _465
REMARK  186  A    between atoms: _464  and  _467
REMARK  187  A    between atoms: _467  and  _468
REMARK  188  A    between atoms: _470  and  _472
REMARK  189  A    between atoms: _472  and  _473
REMARK  190  A    between atoms: _475  and  _477
REMARK  191  A    between atoms: _477  and  _478
REMARK  192  A    between atoms: _477  and  _480
REMARK  193  A    between atoms: _480  and  _481
REMARK  194  A    between atoms: _481  and  _482
REMARK  195  A    between atoms: _482  and  _483
REMARK  196  A    between atoms: _483  and  _484
REMARK  197  A    between atoms: _488  and  _490
REMARK  198  A    between atoms: _490  and  _491
REMARK  199  A    between atoms: _490  and  _493
REMARK  200  A    between atoms: _493  and  _494
REMARK  201  A    between atoms: _500  and  _502
REMARK  202  A    between atoms: _502  and  _503
REMARK  203  A    between atoms: _502  and  _505
REMARK  204  A    between atoms: _505  and  _506
REMARK  205  A    between atoms: _509  and  _511
REMARK  206  A    between atoms: _511  and  _512
REMARK  207  A    between atoms: _511  and  _514
REMARK  208  A    between atoms: _514  and  _515
REMARK  209  A    between atoms: _520  and  _521
REMARK  210  A    between atoms: _523  and  _525
REMARK  211  A    between atoms: _525  and  _526
REMARK  212  A    between atoms: _529  and  _531
REMARK  213  A    between atoms: _531  and  _532
REMARK  214  A    between atoms: _531  and  _534
REMARK  215  A    between atoms: _534  and  _535
REMARK  216  A    between atoms: _538  and  _540
REMARK  217  A    between atoms: _540  and  _541
REMARK  218  A    between atoms: _540  and  _543
REMARK  219  A    between atoms: _543  and  _544
REMARK  220  A    between atoms: _549  and  _551
REMARK  221  A    between atoms: _551  and  _552
REMARK  222  A    between atoms: _555  and  _557
REMARK  223  A    between atoms: _557  and  _558
REMARK  224  A    between atoms: _557  and  _560
REMARK  225  A    between atoms: _560  and  _561
REMARK  226  A    between atoms: _561  and  _562
REMARK  227  A    between atoms: _564  and  _566
REMARK  228  A    between atoms: _566  and  _567
REMARK  229  A    between atoms: _566  and  _569
REMARK  230  A    between atoms: _569  and  _570
REMARK  231  A    between atoms: _573  and  _575
REMARK  232  A    between atoms: _575  and  _576
REMARK  233  A    between atoms: _575  and  _578
REMARK  234  A    between atoms: _578  and  _579
REMARK  235  A    between atoms: _582  and  _584
REMARK  236  A    between atoms: _584  and  _585
REMARK  237  A    between atoms: _588  and  _590
REMARK  238  A    between atoms: _590  and  _591
REMARK  239  A    between atoms: _590  and  _593
REMARK  240  A    between atoms: _593  and  _594
REMARK  241  A    between atoms: _597  and  _599
REMARK  242  A    between atoms: _599  and  _600
REMARK  243  A    between atoms: _602  and  _604
REMARK  244  A    between atoms: _604  and  _605
REMARK  245  A    between atoms: _608  and  _610
REMARK  246  A    between atoms: _610  and  _611
REMARK  247  A    between atoms: _610  and  _613
REMARK  248  A    between atoms: _613  and  _614
REMARK  249  A    between atoms: _617  and  _619
REMARK  250  A    between atoms: _619  and  _620
REMARK  251  A    between atoms: _619  and  _622
REMARK  252  A    between atoms: _622  and  _623
REMARK  253  A    between atoms: _626  and  _628
REMARK  254  A    between atoms: _628  and  _629
REMARK  255  A    between atoms: _628  and  _631
REMARK  256  A    between atoms: _631  and  _632
REMARK  257  A    between atoms: _632  and  _633
REMARK  258  A    between atoms: _633  and  _634
REMARK  259  A    between atoms: _643  and  _645
REMARK  260  A    between atoms: _645  and  _646
REMARK  261  A    between atoms: _645  and  _648
REMARK  262  A    between atoms: _648  and  _649
REMARK  263  A    between atoms: _649  and  _650
REMARK  264  A    between atoms: _650  and  _651
REMARK  265  A    between atoms: _651  and  _652
REMARK  266  A    between atoms: _656  and  _658
REMARK  267  A    between atoms: _658  and  _659
REMARK  268  A    between atoms: _658  and  _661
REMARK  269  A    between atoms: _661  and  _662
REMARK  270  A    between atoms: _667  and  _669
REMARK  271  A    between atoms: _669  and  _670
REMARK  272  A    between atoms: _669  and  _672
REMARK  273  A    between atoms: _672  and  _673
REMARK  274  A    between atoms: _673  and  _674
REMARK  275  A    between atoms: _677  and  _679
REMARK  276  A    between atoms: _679  and  _680
REMARK  277  A    between atoms: _679  and  _682
REMARK  278  A    between atoms: _682  and  _683
REMARK  279  A    between atoms: _686  and  _688
REMARK  280  A    between atoms: _688  and  _689
REMARK  281  A    between atoms: _688  and  _691
REMARK  282  A    between atoms: _691  and  _692
REMARK                            x       y       z     vdW  Elec       q    Type
REMARK                         _______ _______ _______ _____ _____    ______ ____
ROOT
ATOM      1  CG  LYS A   1     -45.458 -32.260 -33.027  0.00  0.00    -0.000 C 
ENDROOT
BRANCH   1   2
ATOM      2  CB  LYS A   1     -45.257 -32.006 -31.547  0.00  0.00    +0.025 C 
BRANCH   2   3
ATOM      3  CA  LYS A   1     -44.335 -33.003 -30.844  0.00  0.00    +0.133 C 
BRANCH   3   4
ATOM      4  N   LYS A   1     -44.937 -34.329 -30.777  0.00  0.00    -0.239 NA
ATOM      5  H   LYS A   1     -45.873 -34.486 -31.203  0.00  0.00    +0.142 HD
ENDBRANCH   3   4
BRANCH   3   6
ATOM      6  C   LYS A   1     -44.088 -32.532 -29.420  0.00  0.00    +0.224 C 
ATOM      7  O   LYS A   1     -44.974 -32.633 -28.576  0.00  0.00    -0.287 OA
ENDBRANCH   3   6
ENDBRANCH   2   3
ENDBRANCH   1   2
BRANCH   1   8
ATOM      8  CD  LYS A   1     -46.449 -31.262 -33.651  0.00  0.00    -0.024 C 
BRANCH   8   9
ATOM      9  CE  LYS A   1     -45.881 -29.842 -33.746  0.00  0.00    -0.086 C 
BRANCH   9  10
ATOM     10  NZ  LYS A   1     -46.667 -29.039 -34.734  0.00  0.00    +0.380 N 
ATOM     11  HZ1 LYS A   1     -47.660 -28.990 -34.428  0.00  0.00    -0.089 HD
ATOM     12  HZ2 LYS A   1     -46.273 -28.078 -34.790  0.00  0.00    -0.089 HD
ATOM     13  HZ3 LYS A   1     -46.613 -29.492 -35.669  0.00  0.00    -0.089 HD
ENDBRANCH   9  10
ENDBRANCH   8   9
ENDBRANCH   1   8
TORSDOF 7
REMARK  Name = ../refined-set-2016/2il2/2il2_pocket.pdb
REMARK  282 active torsions:
REMARK  status: ('A' for Active; 'I' for Inactive)
REMARK    1  A    between atoms: _1  and  _3
REMARK    2  A    between atoms: _3  and  _4
REMARK    3  A    between atoms: _3  and  _6
REMARK    4  A    between atoms: _6  and  _7
REMARK    5  A    between atoms: _10  and  _12
REMARK    6  A    between atoms: _12  and  _13
REMARK    7  A    between atoms: _12  and  _15
REMARK    8  A    between atoms: _15  and  _16
REMARK    9  A    between atoms: _19  and  _21
REMARK   10  A    between atoms: _21  and  _22
REMARK   11  A    between atoms: _21  and  _24
REMARK   12  A    between atoms: _24  and  _25
REMARK   13  A    between atoms: _30  and  _31
REMARK   14  A    between atoms: _33  and  _35
REMARK   15  A    between atoms: _35  and  _36
REMARK   16  A    between atoms: _35  and  _38
REMARK   17  A    between atoms: _38  and  _39
REMARK   18  A    between atoms: _42  and  _44
REMARK   19  A    between atoms: _44  and  _45
REMARK   20  A    between atoms: _44  and  _47
REMARK   21  A    between atoms: _47  and  _48
REMARK   22  A    between atoms: _51  and  _53
REMARK   23  A    between atoms: _53  and  _54
REMARK   24  A    between atoms: _53  and  _56
REMARK   25  A    between atoms: _56  and  _57
REMARK   26  A    between atoms: _57  and  _58
REMARK   27  A    between atoms: _63  and  _65
REMARK   28  A    between atoms: _65  and  _66
REMARK   29  A    between atoms: _65  and  _68
REMARK   30  A    between atoms: _68  and  _69
REMARK   31  A    between atoms: _74  and  _75
REMARK   32  A    between atoms: _77  and  _79
REMARK   33  A    between atoms: _79  and  _80
REMARK   34  A    between atoms: _79  and  _82
REMARK   35  A    between atoms: _82  and  _83
REMARK   36  A    between atoms: _88  and  _89
REMARK   37  A    between atoms: _91  and  _93
REMARK   38  A    between atoms: _93  and  _94
REMARK   39  A    between atoms: _93  and  _96
REMARK   40  A    between atoms: _99  and  _101
REMARK   41  A    between atoms: _101  and  _102
REMARK   42  A    between atoms: _101  and  _104
REMARK   43  A    between atoms: _107  and  _109
REMARK   44  A    between atoms: _109  and  _110
REMARK   45  A    between atoms: _109  and  _112
REMARK   46  A    between atoms: _112  and  _113
REMARK   47  A    between atoms: _119  and  _121
REMARK   48  A    between atoms: _121  and  _122
REMARK   49  A    between atoms: _121  and  _124
REMARK   50  A    between atoms: _124  and  _125
REMARK   51  A    between atoms: _128  and  _130
REMARK   52  A    between atoms: _130  and  _131
REMARK   53  A    between atoms: _130  and  _133
REMARK   54  A    between atoms: _133  and  _134
REMARK   55  A    between atoms: _137  and  _139
REMARK   56  A    between atoms: _139  and  _140
REMARK   57  A    between atoms: _142  and  _144
REMARK   58  A    between atoms: _144  and  _145
REMARK   59  A    between atoms: _144  and  _147
REMARK   60  A    between atoms: _147  and  _148
REMARK   61  A    between atoms: _150  and  _152
REMARK   62  A    between atoms: _152  and  _153
REMARK   63  A    between atoms: _152  and  _155
REMARK   64  A    between atoms: _155  and  _156
REMARK   65  A    between atoms: _158  and  _160
REMARK   66  A    between atoms: _160  and  _161
REMARK   67  A    between atoms: _160  and  _163
REMARK   68  A    between atoms: _163  and  _164
REMARK   69  A    between atoms: _174  and  _176
REMARK   70  A    between atoms: _176  and  _177
REMARK   71  A    between atoms: _176  and  _179
REMARK   72  A    between atoms: _179  and  _180
REMARK   73  A    between atoms: _180  and  _181
REMARK   74  A    between atoms: _181  and  _182
REMARK   75  A    between atoms: _191  and  _193
REMARK   76  A    between atoms: _193  and  _194
REMARK   77  A    between atoms: _193  and  _196
REMARK   78  A    between atoms: _196  and  _197
REMARK   79  A    between atoms: _202  and  _203
REMARK   80  A    between atoms: _205  and  _207
REMARK   81  A    between atoms: _207  and  _208
REMARK   82  A    between atoms: _207  and  _210
REMARK   83  A    between atoms: _210  and  _211
REMARK   84  A    between atoms: _213  and  _215
REMARK   85  A    between atoms: _215  and  _216
REMARK   86  A    between atoms: _215  and  _218
REMARK   87  A    between atoms: _218  and  _219
REMARK   88  A    between atoms: _222  and  _224
REMARK   89  A    between atoms: _224  and  _225
REMARK   90  A    between atoms: _227  and  _229
REMARK   91  A    between atoms: _229  and  _230
REMARK   92  A    between atoms: _229  and  _232
REMARK   93  A    between atoms: _232  and  _233
REMARK   94  A    between atoms: _236  and  _238
REMARK   95  A    between atoms: _238  and  _239
REMARK   96  A    between atoms: _238  and  _241
REMARK   97  A    between atoms: _244  and  _246
REMARK   98  A    between atoms: _246  and  _247
REMARK   99  A    between atoms: _250  and  _252
REMARK  100  A    between atoms: _252  and  _253
REMARK  101  A    between atoms: _252  and  _255
REMARK  102  A    between atoms: _255  and  _256
REMARK  103  A    between atoms: _260  and  _261
REMARK  104  A    between atoms: _266  and  _268
REMARK  105  A    between atoms: _268  and  _269
REMARK  106  A    between atoms: _268  and  _271
REMARK  107  A    between atoms: _271  and  _272
REMARK  108  A    between atoms: _278  and  _280
REMARK  109  A    between atoms: _280  and  _281
REMARK  110  A    between atoms: _280  and  _283
REMARK  111  A    between atoms: _283  and  _284
REMARK  112  A    between atoms: _284  and  _285
REMARK  113  A    between atoms: _287  and  _289
REMARK  114  A    between atoms: _289  and  _290
REMARK  115  A    between atoms: _289  and  _292
REMARK  116  A    between atoms: _292  and  _293
REMARK  117  A    between atoms: _296  and  _298
REMARK  118  A    between atoms: _298  and  _299
REMARK  119  A    between atoms: _302  and  _304
REMARK  120  A    between atoms: _304  and  _305
REMARK  121  A    between atoms: _304  and  _307
REMARK  122  A    between atoms: _307  and  _308
REMARK  123  A    between atoms: _308  and  _309
REMARK  124  A    between atoms: _312  and  _314
REMARK  125  A    between atoms: _314  and  _315
REMARK  126  A    between atoms: _314  and  _317
REMARK  127  A    between atoms: _317  and  _318
REMARK  128  A    between atoms: _324  and  _326
REMARK  129  A    between atoms: _326  and  _327
REMARK  130  A    between atoms: _329  and  _331
REMARK  131  A    between atoms: _331  and  _332
REMARK  132  A    between atoms: _331  and  _334
REMARK  133  A    between atoms: _337  and  _339
REMARK  134  A    between atoms: _339  and  _340
REMARK  135  A    between atoms: _339  and  _342
REMARK  136  A    between atoms: _345  and  _347
REMARK  137  A    between atoms: _347  and  _348
REMARK  138  A    between atoms: _350  and  _352
REMARK  139  A    between atoms: _352  and  _353
REMARK  140  A    between atoms: _352  and  _355
REMARK  141  A    between atoms: _355  and  _356
REMARK  142  A    between atoms: _356  and  _357
REMARK  143  A    between atoms: _359  and  _361
REMARK  144  A    between atoms: _361  and  _362
REMARK  145  A    between atoms: _361  and  _364
REMARK  146  A    between atoms: _364  and  _365
REMARK  147  A    between atoms: _371  and  _373
REMARK  148  A    between atoms: _373  and  _374
REMARK  149  A    between atoms: _373  and  _376
REMARK  150  A    between atoms: _376  and  _377
REMARK  151  A    between atoms: _382  and  _383
REMARK  152  A    between atoms: _385  and  _387
REMARK  153  A    between atoms: _387  and  _388
REMARK  154  A    between atoms: _387  and  _390
REMARK  155  A    between atoms: _390  and  _391
REMARK  156  A    between atoms: _394  and  _396
REMARK  157  A    between atoms: _396  and  _397
REMARK  158  A    between atoms: _396  and  _399
REMARK  159  A    between atoms: _402  and  _404
REMARK  160  A    between atoms: _404  and  _405
REMARK  161  A    between atoms: _404  and  _407
REMARK  162  A    between atoms: _407  and  _408
REMARK  163  A    between atoms: _411  and  _413
REMARK  164  A    between atoms: _413  and  _414
REMARK  165  A    between atoms: _413  and  _416
REMARK  166  A    between atoms: _416  and  _417
REMARK  167  A    between atoms: _420  and  _422
REMARK  168  A    between atoms: _422  and  _423
REMARK  169  A    between atoms: _425  and  _427
REMARK  170  A    between atoms: _427  and  _428
REMARK  171  A    between atoms: _431  and  _433
REMARK  172  A    between atoms: _433  and  _434
REMARK  173  A    between atoms: _433  and  _436
REMARK  174  A    between atoms: _436  and  _437
REMARK  175  A    between atoms: _439  and  _441
REMARK  176  A    between atoms: _441  and  _442
REMARK  177  A    between atoms: _441  and  _444
REMARK  178  A    between atoms: _444  and  _445
REMARK  179  A    between atoms: _450  and  _451
REMARK  180  A    between atoms: _453  and  _455
REMARK  181  A    between atoms: _455  and  _456
REMARK  182  A    between atoms: _455  and  _458
REMARK  183  A    between atoms: _458  and  _459
REMARK  184  A    between atoms: _462  and  _464
REMARK  185  A    between atoms: _464  and  _465
REMARK  186  A    between atoms: _464  and  _467
REMARK  187  A    between atoms: _467  and  _468
REMARK  188  A    between atoms: _470  and  _472
REMARK  189  A    between atoms: _472  and  _473
REMARK  190  A    between atoms: _475  and  _477
REMARK  191  A    between atoms: _477  and  _478
REMARK  192  A    between atoms: _477  and  _480
REMARK  193  A    between atoms: _480  and  _481
REMARK  194  A    between atoms: _481  and  _482
REMARK  195  A    between atoms: _482  and  _483
REMARK  196  A    between atoms: _483  and  _484
REMARK  197  A    between atoms: _488  and  _490
REMARK  198  A    between atoms: _490  and  _491
REMARK  199  A    between atoms: _490  and  _493
REMARK  200  A    between atoms: _493  and  _494
REMARK  201  A    between atoms: _500  and  _502
REMARK  202  A    between atoms: _502  and  _503
REMARK  203  A    between atoms: _502  and  _505
REMARK  204  A    between atoms: _505  and  _506
REMARK  205  A    between atoms: _509  and  _511
REMARK  206  A    between atoms: _511  and  _512
REMARK  207  A    between atoms: _511  and  _514
REMARK  208  A    between atoms: _514  and  _515
REMARK  209  A    between atoms: _520  and  _521
REMARK  210  A    between atoms: _523  and  _525
REMARK  211  A    between atoms: _525  and  _526
REMARK  212  A    between atoms: _529  and  _531
REMARK  213  A    between atoms: _531  and  _532
REMARK  214  A    between atoms: _531  and  _534
REMARK  215  A    between atoms: _534  and  _535
REMARK  216  A    between atoms: _538  and  _540
REMARK  217  A    between atoms: _540  and  _541
REMARK  218  A    between atoms: _540  and  _543
REMARK  219  A    between atoms: _543  and  _544
REMARK  220  A    between atoms: _549  and  _551
REMARK  221  A    between atoms: _551  and  _552
REMARK  222  A    between atoms: _555  and  _557
REMARK  223  A    between atoms: _557  and  _558
REMARK  224  A    between atoms: _557  and  _560
REMARK  225  A    between atoms: _560  and  _561
REMARK  226  A    between atoms: _561  and  _562
REMARK  227  A    between atoms: _564  and  _566
REMARK  228  A    between atoms: _566  and  _567
REMARK  229  A    between atoms: _566  and  _569
REMARK  230  A    between atoms: _569  and  _570
REMARK  231  A    between atoms: _573  and  _575
REMARK  232  A    between atoms: _575  and  _576
REMARK  233  A    between atoms: _575  and  _578
REMARK  234  A    between atoms: _578  and  _579
REMARK  235  A    between atoms: _582  and  _584
REMARK  236  A    between atoms: _584  and  _585
REMARK  237  A    between atoms: _588  and  _590
REMARK  238  A    between atoms: _590  and  _591
REMARK  239  A    between atoms: _590  and  _593
REMARK  240  A    between atoms: _593  and  _594
REMARK  241  A    between atoms: _597  and  _599
REMARK  242  A    between atoms: _599  and  _600
REMARK  243  A    between atoms: _602  and  _604
REMARK  244  A    between atoms: _604  and  _605
REMARK  245  A    between atoms: _608  and  _610
REMARK  246  A    between atoms: _610  and  _611
REMARK  247  A    between atoms: _610  and  _613
REMARK  248  A    between atoms: _613  and  _614
REMARK  249  A    between atoms: _617  and  _619
REMARK  250  A    between atoms: _619  and  _620
REMARK  251  A    between atoms: _619  and  _622
REMARK  252  A    between atoms: _622  and  _623
REMARK  253  A    between atoms: _626  and  _628
REMARK  254  A    between atoms: _628  and  _629
REMARK  255  A    between atoms: _628  and  _631
REMARK  256  A    between atoms: _631  and  _632
REMARK  257  A    between atoms: _632  and  _633
REMARK  258  A    between atoms: _633  and  _634
REMARK  259  A    between atoms: _643  and  _645
REMARK  260  A    between atoms: _645  and  _646
REMARK  261  A    between atoms: _645  and  _648
REMARK  262  A    between atoms: _648  and  _649
REMARK  263  A    between atoms: _649  and  _650
REMARK  264  A    between atoms: _650  and  _651
REMARK  265  A    between atoms: _651  and  _652
REMARK  266  A    between atoms: _656  and  _658
REMARK  267  A    between atoms: _658  and  _659
REMARK  268  A    between atoms: _658  and  _661
REMARK  269  A    between atoms: _661  and  _662
REMARK  270  A    between atoms: _667  and  _669
REMARK  271  A    between atoms: _669  and  _670
REMARK  272  A    between atoms: _669  and  _672
REMARK  273  A    between atoms: _672  and  _673
REMARK  274  A    between atoms: _673  and  _674
REMARK  275  A    between atoms: _677  and  _679
REMARK  276  A    between atoms: _679  and  _680
REMARK  277  A    between atoms: _679  and  _682
REMARK  278  A    between atoms: _682  and  _683
REMARK  279  A    between atoms: _686  and  _688
REMARK  280  A    between atoms: _688  and  _689
REMARK  281  A    between atoms: _688  and  _691
REMARK  282  A    between atoms: _691  and  _692
REMARK                            x       y       z     vdW  Elec       q    Type
REMARK                         _______ _______ _______ _____ _____    ______ ____
ROOT
ATOM      1  C   ASN A   1     -46.139 -29.329 -26.841  0.00  0.00    +0.239 C 
ATOM      2  O   ASN A   1     -46.747 -28.834 -25.894  0.00  0.00    -0.274 OA
ATOM      3  N   GLU A   2     -46.577 -30.398 -27.502  0.00  0.00    -0.298 N 
ATOM      4  H   GLU A   2     -45.987 -30.806 -28.255  0.00  0.00    +0.150 HD
ENDROOT
BRANCH   1   5
ATOM      5  CA  ASN A   1     -44.825 -28.718 -27.320  0.00  0.00    +0.154 C 
BRANCH   5   6
ATOM      6  N   ASN A   1     -43.908 -29.711 -27.885  0.00  0.00    -0.238 NA
ATOM      7  H   ASN A   1     -43.651 -29.659 -28.891  0.00  0.00    +0.142 HD
ENDBRANCH   5   6
BRANCH   5   8
ATOM      8  CB  ASN A   1     -45.103 -27.573 -28.298  0.00  0.00    +0.111 C 
BRANCH   8   9
ATOM      9  CG  ASN A   1     -45.864 -28.012 -29.539  0.00  0.00    +0.221 C 
ATOM     10  ND2 ASN A   1     -46.854 -27.223 -29.940  0.00  0.00    -0.329 N 
ATOM     11 HD21 ASN A   1     -47.088 -26.367 -29.398  0.00  0.00    +0.145 HD
ATOM     12 HD22 ASN A   1     -47.395 -27.462 -30.796  0.00  0.00    +0.145 HD
ATOM     13  OD1 ASN A   1     -45.548 -29.032 -30.141  0.00  0.00    -0.275 OA
ENDBRANCH   8   9
ENDBRANCH   5   8
ENDBRANCH   1   5
BRANCH   3  14
ATOM     14  CA  GLU A   2     -47.857 -31.007 -27.197  0.00  0.00    +0.137 C 
BRANCH  14  15
ATOM     15  C   GLU A   2     -47.744 -32.025 -26.075  0.00  0.00    +0.227 C 
ATOM     16  O   GLU A   2     -48.756 -32.503 -25.587  0.00  0.00    -0.286 OA
ENDBRANCH  14  15
BRANCH  14  17
ATOM     17  CB  GLU A   2     -48.474 -31.627 -28.461  0.00  0.00    +0.039 C 
BRANCH  17  18
ATOM     18  CG  GLU A   2     -49.168 -30.604 -29.335  0.00  0.00    +0.116 C 
BRANCH  18  19
ATOM     19  CD  GLU A   2     -49.346 -31.051 -30.774  0.00  0.00    +0.365 C 
ATOM     20  OE2 GLU A   2     -49.279 -32.275 -31.054  0.00  0.00    -0.246 OA
ATOM     21  OE1 GLU A   2     -49.570 -30.166 -31.629  0.00  0.00    -0.246 OA
ENDBRANCH  18  19
ENDBRANCH  17  18
ENDBRANCH  14  17
ENDBRANCH   3  14
TORSDOF 9
REMARK  Name = ../refined-set-2016/2il2/2il2_pocket.pdb
REMARK  282 active torsions:
REMARK  status: ('A' for Active; 'I' for Inactive)
REMARK    1  A    between atoms: _1  and  _3
REMARK    2  A    between atoms: _3  and  _4
REMARK    3  A    between atoms: _3  and  _6
REMARK    4  A    between atoms: _6  and  _7
REMARK    5  A    between atoms: _10  and  _12
REMARK    6  A    between atoms: _12  and  _13
REMARK    7  A    between atoms: _12  and  _15
REMARK    8  A    between atoms: _15  and  _16
REMARK    9  A    between atoms: _19  and  _21
REMARK   10  A    between atoms: _21  and  _22
REMARK   11  A    between atoms: _21  and  _24
REMARK   12  A    between atoms: _24  and  _25
REMARK   13  A    between atoms: _30  and  _31
REMARK   14  A    between atoms: _33  and  _35
REMARK   15  A    between atoms: _35  and  _36
REMARK   16  A    between atoms: _35  and  _38
REMARK   17  A    between atoms: _38  and  _39
REMARK   18  A    between atoms: _42  and  _44
REMARK   19  A    between atoms: _44  and  _45
REMARK   20  A    between atoms: _44  and  _47
REMARK   21  A    between atoms: _47  and  _48
REMARK   22  A    between atoms: _51  and  _53
REMARK   23  A    between atoms: _53  and  _54
REMARK   24  A    between atoms: _53  and  _56
REMARK   25  A    between atoms: _56  and  _57
REMARK   26  A    between atoms: _57  and  _58
REMARK   27  A    between atoms: _63  and  _65
REMARK   28  A    between atoms: _65  and  _66
REMARK   29  A    between atoms: _65  and  _68
REMARK   30  A    between atoms: _68  and  _69
REMARK   31  A    between atoms: _74  and  _75
REMARK   32  A    between atoms: _77  and  _79
REMARK   33  A    between atoms: _79  and  _80
REMARK   34  A    between atoms: _79  and  _82
REMARK   35  A    between atoms: _82  and  _83
REMARK   36  A    between atoms: _88  and  _89
REMARK   37  A    between atoms: _91  and  _93
REMARK   38  A    between atoms: _93  and  _94
REMARK   39  A    between atoms: _93  and  _96
REMARK   40  A    between atoms: _99  and  _101
REMARK   41  A    between atoms: _101  and  _102
REMARK   42  A    between atoms: _101  and  _104
REMARK   43  A    between atoms: _107  and  _109
REMARK   44  A    between atoms: _109  and  _110
REMARK   45  A    between atoms: _109  and  _112
REMARK   46  A    between atoms: _112  and  _113
REMARK   47  A    between atoms: _119  and  _121
REMARK   48  A    between atoms: _121  and  _122
REMARK   49  A    between atoms: _121  and  _124
REMARK   50  A    between atoms: _124  and  _125
REMARK   51  A    between atoms: _128  and  _130
REMARK   52  A    between atoms: _130  and  _131
REMARK   53  A    between atoms: _130  and  _133
REMARK   54  A    between atoms: _133  and  _134
REMARK   55  A    between atoms: _137  and  _139
REMARK   56  A    between atoms: _139  and  _140
REMARK   57  A    between atoms: _142  and  _144
REMARK   58  A    between atoms: _144  and  _145
REMARK   59  A    between atoms: _144  and  _147
REMARK   60  A    between atoms: _147  and  _148
REMARK   61  A    between atoms: _150  and  _152
REMARK   62  A    between atoms: _152  and  _153
REMARK   63  A    between atoms: _152  and  _155
REMARK   64  A    between atoms: _155  and  _156
REMARK   65  A    between atoms: _158  and  _160
REMARK   66  A    between atoms: _160  and  _161
REMARK   67  A    between atoms: _160  and  _163
REMARK   68  A    between atoms: _163  and  _164
REMARK   69  A    between atoms: _174  and  _176
REMARK   70  A    between atoms: _176  and  _177
REMARK   71  A    between atoms: _176  and  _179
REMARK   72  A    between atoms: _179  and  _180
REMARK   73  A    between atoms: _180  and  _181
REMARK   74  A    between atoms: _181  and  _182
REMARK   75  A    between atoms: _191  and  _193
REMARK   76  A    between atoms: _193  and  _194
REMARK   77  A    between atoms: _193  and  _196
REMARK   78  A    between atoms: _196  and  _197
REMARK   79  A    between atoms: _202  and  _203
REMARK   80  A    between atoms: _205  and  _207
REMARK   81  A    between atoms: _207  and  _208
REMARK   82  A    between atoms: _207  and  _210
REMARK   83  A    between atoms: _210  and  _211
REMARK   84  A    between atoms: _213  and  _215
REMARK   85  A    between atoms: _215  and  _216
REMARK   86  A    between atoms: _215  and  _218
REMARK   87  A    between atoms: _218  and  _219
REMARK   88  A    between atoms: _222  and  _224
REMARK   89  A    between atoms: _224  and  _225
REMARK   90  A    between atoms: _227  and  _229
REMARK   91  A    between atoms: _229  and  _230
REMARK   92  A    between atoms: _229  and  _232
REMARK   93  A    between atoms: _232  and  _233
REMARK   94  A    between atoms: _236  and  _238
REMARK   95  A    between atoms: _238  and  _239
REMARK   96  A    between atoms: _238  and  _241
REMARK   97  A    between atoms: _244  and  _246
REMARK   98  A    between atoms: _246  and  _247
REMARK   99  A    between atoms: _250  and  _252
REMARK  100  A    between atoms: _252  and  _253
REMARK  101  A    between atoms: _252  and  _255
REMARK  102  A    between atoms: _255  and  _256
REMARK  103  A    between atoms: _260  and  _261
REMARK  104  A    between atoms: _266  and  _268
REMARK  105  A    between atoms: _268  and  _269
REMARK  106  A    between atoms: _268  and  _271
REMARK  107  A    between atoms: _271  and  _272
REMARK  108  A    between atoms: _278  and  _280
REMARK  109  A    between atoms: _280  and  _281
REMARK  110  A    between atoms: _280  and  _283
REMARK  111  A    between atoms: _283  and  _284
REMARK  112  A    between atoms: _284  and  _285
REMARK  113  A    between atoms: _287  and  _289
REMARK  114  A    between atoms: _289  and  _290
REMARK  115  A    between atoms: _289  and  _292
REMARK  116  A    between atoms: _292  and  _293
REMARK  117  A    between atoms: _296  and  _298
REMARK  118  A    between atoms: _298  and  _299
REMARK  119  A    between atoms: _302  and  _304
REMARK  120  A    between atoms: _304  and  _305
REMARK  121  A    between atoms: _304  and  _307
REMARK  122  A    between atoms: _307  and  _308
REMARK  123  A    between atoms: _308  and  _309
REMARK  124  A    between atoms: _312  and  _314
REMARK  125  A    between atoms: _314  and  _315
REMARK  126  A    between atoms: _314  and  _317
REMARK  127  A    between atoms: _317  and  _318
REMARK  128  A    between atoms: _324  and  _326
REMARK  129  A    between atoms: _326  and  _327
REMARK  130  A    between atoms: _329  and  _331
REMARK  131  A    between atoms: _331  and  _332
REMARK  132  A    between atoms: _331  and  _334
REMARK  133  A    between atoms: _337  and  _339
REMARK  134  A    between atoms: _339  and  _340
REMARK  135  A    between atoms: _339  and  _342
REMARK  136  A    between atoms: _345  and  _347
REMARK  137  A    between atoms: _347  and  _348
REMARK  138  A    between atoms: _350  and  _352
REMARK  139  A    between atoms: _352  and  _353
REMARK  140  A    between atoms: _352  and  _355
REMARK  141  A    between atoms: _355  and  _356
REMARK  142  A    between atoms: _356  and  _357
REMARK  143  A    between atoms: _359  and  _361
REMARK  144  A    between atoms: _361  and  _362
REMARK  145  A    between atoms: _361  and  _364
REMARK  146  A    between atoms: _364  and  _365
REMARK  147  A    between atoms: _371  and  _373
REMARK  148  A    between atoms: _373  and  _374
REMARK  149  A    between atoms: _373  and  _376
REMARK  150  A    between atoms: _376  and  _377
REMARK  151  A    between atoms: _382  and  _383
REMARK  152  A    between atoms: _385  and  _387
REMARK  153  A    between atoms: _387  and  _388
REMARK  154  A    between atoms: _387  and  _390
REMARK  155  A    between atoms: _390  and  _391
REMARK  156  A    between atoms: _394  and  _396
REMARK  157  A    between atoms: _396  and  _397
REMARK  158  A    between atoms: _396  and  _399
REMARK  159  A    between atoms: _402  and  _404
REMARK  160  A    between atoms: _404  and  _405
REMARK  161  A    between atoms: _404  and  _407
REMARK  162  A    between atoms: _407  and  _408
REMARK  163  A    between atoms: _411  and  _413
REMARK  164  A    between atoms: _413  and  _414
REMARK  165  A    between atoms: _413  and  _416
REMARK  166  A    between atoms: _416  and  _417
REMARK  167  A    between atoms: _420  and  _422
REMARK  168  A    between atoms: _422  and  _423
REMARK  169  A    between atoms: _425  and  _427
REMARK  170  A    between atoms: _427  and  _428
REMARK  171  A    between atoms: _431  and  _433
REMARK  172  A    between atoms: _433  and  _434
REMARK  173  A    between atoms: _433  and  _436
REMARK  174  A    between atoms: _436  and  _437
REMARK  175  A    between atoms: _439  and  _441
REMARK  176  A    between atoms: _441  and  _442
REMARK  177  A    between atoms: _441  and  _444
REMARK  178  A    between atoms: _444  and  _445
REMARK  179  A    between atoms: _450  and  _451
REMARK  180  A    between atoms: _453  and  _455
REMARK  181  A    between atoms: _455  and  _456
REMARK  182  A    between atoms: _455  and  _458
REMARK  183  A    between atoms: _458  and  _459
REMARK  184  A    between atoms: _462  and  _464
REMARK  185  A    between atoms: _464  and  _465
REMARK  186  A    between atoms: _464  and  _467
REMARK  187  A    between atoms: _467  and  _468
REMARK  188  A    between atoms: _470  and  _472
REMARK  189  A    between atoms: _472  and  _473
REMARK  190  A    between atoms: _475  and  _477
REMARK  191  A    between atoms: _477  and  _478
REMARK  192  A    between atoms: _477  and  _480
REMARK  193  A    between atoms: _480  and  _481
REMARK  194  A    between atoms: _481  and  _482
REMARK  195  A    between atoms: _482  and  _483
REMARK  196  A    between atoms: _483  and  _484
REMARK  197  A    between atoms: _488  and  _490
REMARK  198  A    between atoms: _490  and  _491
REMARK  199  A    between atoms: _490  and  _493
REMARK  200  A    between atoms: _493  and  _494
REMARK  201  A    between atoms: _500  and  _502
REMARK  202  A    between atoms: _502  and  _503
REMARK  203  A    between atoms: _502  and  _505
REMARK  204  A    between atoms: _505  and  _506
REMARK  205  A    between atoms: _509  and  _511
REMARK  206  A    between atoms: _511  and  _512
REMARK  207  A    between atoms: _511  and  _514
REMARK  208  A    between atoms: _514  and  _515
REMARK  209  A    between atoms: _520  and  _521
REMARK  210  A    between atoms: _523  and  _525
REMARK  211  A    between atoms: _525  and  _526
REMARK  212  A    between atoms: _529  and  _531
REMARK  213  A    between atoms: _531  and  _532
REMARK  214  A    between atoms: _531  and  _534
REMARK  215  A    between atoms: _534  and  _535
REMARK  216  A    between atoms: _538  and  _540
REMARK  217  A    between atoms: _540  and  _541
REMARK  218  A    between atoms: _540  and  _543
REMARK  219  A    between atoms: _543  and  _544
REMARK  220  A    between atoms: _549  and  _551
REMARK  221  A    between atoms: _551  and  _552
REMARK  222  A    between atoms: _555  and  _557
REMARK  223  A    between atoms: _557  and  _558
REMARK  224  A    between atoms: _557  and  _560
REMARK  225  A    between atoms: _560  and  _561
REMARK  226  A    between atoms: _561  and  _562
REMARK  227  A    between atoms: _564  and  _566
REMARK  228  A    between atoms: _566  and  _567
REMARK  229  A    between atoms: _566  and  _569
REMARK  230  A    between atoms: _569  and  _570
REMARK  231  A    between atoms: _573  and  _575
REMARK  232  A    between atoms: _575  and  _576
REMARK  233  A    between atoms: _575  and  _578
REMARK  234  A    between atoms: _578  and  _579
REMARK  235  A    between atoms: _582  and  _584
REMARK  236  A    between atoms: _584  and  _585
REMARK  237  A    between atoms: _588  and  _590
REMARK  238  A    between atoms: _590  and  _591
REMARK  239  A    between atoms: _590  and  _593
REMARK  240  A    between atoms: _593  and  _594
REMARK  241  A    between atoms: _597  and  _599
REMARK  242  A    between atoms: _599  and  _600
REMARK  243  A    between atoms: _602  and  _604
REMARK  244  A    between atoms: _604  and  _605
REMARK  245  A    between atoms: _608  and  _610
REMARK  246  A    between atoms: _610  and  _611
REMARK  247  A    between atoms: _610  and  _613
REMARK  248  A    between atoms: _613  and  _614
REMARK  249  A    between atoms: _617  and  _619
REMARK  250  A    between atoms: _619  and  _620
REMARK  251  A    between atoms: _619  and  _622
REMARK  252  A    between atoms: _622  and  _623
REMARK  253  A    between atoms: _626  and  _628
REMARK  254  A    between atoms: _628  and  _629
REMARK  255  A    between atoms: _628  and  _631
REMARK  256  A    between atoms: _631  and  _632
REMARK  257  A    between atoms: _632  and  _633
REMARK  258  A    between atoms: _633  and  _634
REMARK  259  A    between atoms: _643  and  _645
REMARK  260  A    between atoms: _645  and  _646
REMARK  261  A    between atoms: _645  and  _648
REMARK  262  A    between atoms: _648  and  _649
REMARK  263  A    between atoms: _649  and  _650
REMARK  264  A    between atoms: _650  and  _651
REMARK  265  A    between atoms: _651  and  _652
REMARK  266  A    between atoms: _656  and  _658
REMARK  267  A    between atoms: _658  and  _659
REMARK  268  A    between atoms: _658  and  _661
REMARK  269  A    between atoms: _661  and  _662
REMARK  270  A    between atoms: _667  and  _669
REMARK  271  A    between atoms: _669  and  _670
REMARK  272  A    between atoms: _669  and  _672
REMARK  273  A    between atoms: _672  and  _673
REMARK  274  A    between atoms: _673  and  _674
REMARK  275  A    between atoms: _677  and  _679
REMARK  276  A    between atoms: _679  and  _680
REMARK  277  A    between atoms: _679  and  _682
REMARK  278  A    between atoms: _682  and  _683
REMARK  279  A    between atoms: _686  and  _688
REMARK  280  A    between atoms: _688  and  _689
REMARK  281  A    between atoms: _688  and  _691
REMARK  282  A    between atoms: _691  and  _692
REMARK                            x       y       z     vdW  Elec       q    Type
REMARK                         _______ _______ _______ _____ _____    ______ ____
ROOT
ATOM      1  CA  THR A   1     -51.424 -31.725 -23.352  0.00  0.00    +0.160 C 
ENDROOT
BRANCH   1   2
ATOM      2  N   THR A   1     -49.988 -31.606 -23.086  0.00  0.00    -0.237 NA
ATOM      3  H   THR A   1     -49.316 -31.668 -23.878  0.00  0.00    +0.142 HD
ENDBRANCH   1   2
BRANCH   1   4
ATOM      4  C   THR A   1     -51.900 -33.163 -23.231  0.00  0.00    +0.227 C 
ATOM      5  O   THR A   1     -53.108 -33.411 -23.277  0.00  0.00    -0.287 OA
ENDBRANCH   1   4
BRANCH   1   6
ATOM      6  CB  THR A   1     -51.799 -31.207 -24.761  0.00  0.00    +0.134 C 
ATOM      7  CG2 THR A   1     -51.228 -29.828 -24.965  0.00  0.00    +0.034 C 
BRANCH   6   8
ATOM      8  OG1 THR A   1     -51.306 -32.101 -25.779  0.00  0.00    -0.383 OA
ATOM      9  HG1 THR A   1     -50.320 -32.164 -25.712  0.00  0.00    +0.210 HD
ENDBRANCH   6   8
ENDBRANCH   1   6
TORSDOF 4
REMARK  Name = ../refined-set-2016/2il2/2il2_pocket.pdb
REMARK  282 active torsions:
REMARK  status: ('A' for Active; 'I' for Inactive)
REMARK    1  A    between atoms: _1  and  _3
REMARK    2  A    between atoms: _3  and  _4
REMARK    3  A    between atoms: _3  and  _6
REMARK    4  A    between atoms: _6  and  _7
REMARK    5  A    between atoms: _10  and  _12
REMARK    6  A    between atoms: _12  and  _13
REMARK    7  A    between atoms: _12  and  _15
REMARK    8  A    between atoms: _15  and  _16
REMARK    9  A    between atoms: _19  and  _21
REMARK   10  A    between atoms: _21  and  _22
REMARK   11  A    between atoms: _21  and  _24
REMARK   12  A    between atoms: _24  and  _25
REMARK   13  A    between atoms: _30  and  _31
REMARK   14  A    between atoms: _33  and  _35
REMARK   15  A    between atoms: _35  and  _36
REMARK   16  A    between atoms: _35  and  _38
REMARK   17  A    between atoms: _38  and  _39
REMARK   18  A    between atoms: _42  and  _44
REMARK   19  A    between atoms: _44  and  _45
REMARK   20  A    between atoms: _44  and  _47
REMARK   21  A    between atoms: _47  and  _48
REMARK   22  A    between atoms: _51  and  _53
REMARK   23  A    between atoms: _53  and  _54
REMARK   24  A    between atoms: _53  and  _56
REMARK   25  A    between atoms: _56  and  _57
REMARK   26  A    between atoms: _57  and  _58
REMARK   27  A    between atoms: _63  and  _65
REMARK   28  A    between atoms: _65  and  _66
REMARK   29  A    between atoms: _65  and  _68
REMARK   30  A    between atoms: _68  and  _69
REMARK   31  A    between atoms: _74  and  _75
REMARK   32  A    between atoms: _77  and  _79
REMARK   33  A    between atoms: _79  and  _80
REMARK   34  A    between atoms: _79  and  _82
REMARK   35  A    between atoms: _82  and  _83
REMARK   36  A    between atoms: _88  and  _89
REMARK   37  A    between atoms: _91  and  _93
REMARK   38  A    between atoms: _93  and  _94
REMARK   39  A    between atoms: _93  and  _96
REMARK   40  A    between atoms: _99  and  _101
REMARK   41  A    between atoms: _101  and  _102
REMARK   42  A    between atoms: _101  and  _104
REMARK   43  A    between atoms: _107  and  _109
REMARK   44  A    between atoms: _109  and  _110
REMARK   45  A    between atoms: _109  and  _112
REMARK   46  A    between atoms: _112  and  _113
REMARK   47  A    between atoms: _119  and  _121
REMARK   48  A    between atoms: _121  and  _122
REMARK   49  A    between atoms: _121  and  _124
REMARK   50  A    between atoms: _124  and  _125
REMARK   51  A    between atoms: _128  and  _130
REMARK   52  A    between atoms: _130  and  _131
REMARK   53  A    between atoms: _130  and  _133
REMARK   54  A    between atoms: _133  and  _134
REMARK   55  A    between atoms: _137  and  _139
REMARK   56  A    between atoms: _139  and  _140
REMARK   57  A    between atoms: _142  and  _144
REMARK   58  A    between atoms: _144  and  _145
REMARK   59  A    between atoms: _144  and  _147
REMARK   60  A    between atoms: _147  and  _148
REMARK   61  A    between atoms: _150  and  _152
REMARK   62  A    between atoms: _152  and  _153
REMARK   63  A    between atoms: _152  and  _155
REMARK   64  A    between atoms: _155  and  _156
REMARK   65  A    between atoms: _158  and  _160
REMARK   66  A    between atoms: _160  and  _161
REMARK   67  A    between atoms: _160  and  _163
REMARK   68  A    between atoms: _163  and  _164
REMARK   69  A    between atoms: _174  and  _176
REMARK   70  A    between atoms: _176  and  _177
REMARK   71  A    between atoms: _176  and  _179
REMARK   72  A    between atoms: _179  and  _180
REMARK   73  A    between atoms: _180  and  _181
REMARK   74  A    between atoms: _181  and  _182
REMARK   75  A    between atoms: _191  and  _193
REMARK   76  A    between atoms: _193  and  _194
REMARK   77  A    between atoms: _193  and  _196
REMARK   78  A    between atoms: _196  and  _197
REMARK   79  A    between atoms: _202  and  _203
REMARK   80  A    between atoms: _205  and  _207
REMARK   81  A    between atoms: _207  and  _208
REMARK   82  A    between atoms: _207  and  _210
REMARK   83  A    between atoms: _210  and  _211
REMARK   84  A    between atoms: _213  and  _215
REMARK   85  A    between atoms: _215  and  _216
REMARK   86  A    between atoms: _215  and  _218
REMARK   87  A    between atoms: _218  and  _219
REMARK   88  A    between atoms: _222  and  _224
REMARK   89  A    between atoms: _224  and  _225
REMARK   90  A    between atoms: _227  and  _229
REMARK   91  A    between atoms: _229  and  _230
REMARK   92  A    between atoms: _229  and  _232
REMARK   93  A    between atoms: _232  and  _233
REMARK   94  A    between atoms: _236  and  _238
REMARK   95  A    between atoms: _238  and  _239
REMARK   96  A    between atoms: _238  and  _241
REMARK   97  A    between atoms: _244  and  _246
REMARK   98  A    between atoms: _246  and  _247
REMARK   99  A    between atoms: _250  and  _252
REMARK  100  A    between atoms: _252  and  _253
REMARK  101  A    between atoms: _252  and  _255
REMARK  102  A    between atoms: _255  and  _256
REMARK  103  A    between atoms: _260  and  _261
REMARK  104  A    between atoms: _266  and  _268
REMARK  105  A    between atoms: _268  and  _269
REMARK  106  A    between atoms: _268  and  _271
REMARK  107  A    between atoms: _271  and  _272
REMARK  108  A    between atoms: _278  and  _280
REMARK  109  A    between atoms: _280  and  _281
REMARK  110  A    between atoms: _280  and  _283
REMARK  111  A    between atoms: _283  and  _284
REMARK  112  A    between atoms: _284  and  _285
REMARK  113  A    between atoms: _287  and  _289
REMARK  114  A    between atoms: _289  and  _290
REMARK  115  A    between atoms: _289  and  _292
REMARK  116  A    between atoms: _292  and  _293
REMARK  117  A    between atoms: _296  and  _298
REMARK  118  A    between atoms: _298  and  _299
REMARK  119  A    between atoms: _302  and  _304
REMARK  120  A    between atoms: _304  and  _305
REMARK  121  A    between atoms: _304  and  _307
REMARK  122  A    between atoms: _307  and  _308
REMARK  123  A    between atoms: _308  and  _309
REMARK  124  A    between atoms: _312  and  _314
REMARK  125  A    between atoms: _314  and  _315
REMARK  126  A    between atoms: _314  and  _317
REMARK  127  A    between atoms: _317  and  _318
REMARK  128  A    between atoms: _324  and  _326
REMARK  129  A    between atoms: _326  and  _327
REMARK  130  A    between atoms: _329  and  _331
REMARK  131  A    between atoms: _331  and  _332
REMARK  132  A    between atoms: _331  and  _334
REMARK  133  A    between atoms: _337  and  _339
REMARK  134  A    between atoms: _339  and  _340
REMARK  135  A    between atoms: _339  and  _342
REMARK  136  A    between atoms: _345  and  _347
REMARK  137  A    between atoms: _347  and  _348
REMARK  138  A    between atoms: _350  and  _352
REMARK  139  A    between atoms: _352  and  _353
REMARK  140  A    between atoms: _352  and  _355
REMARK  141  A    between atoms: _355  and  _356
REMARK  142  A    between atoms: _356  and  _357
REMARK  143  A    between atoms: _359  and  _361
REMARK  144  A    between atoms: _361  and  _362
REMARK  145  A    between atoms: _361  and  _364
REMARK  146  A    between atoms: _364  and  _365
REMARK  147  A    between atoms: _371  and  _373
REMARK  148  A    between atoms: _373  and  _374
REMARK  149  A    between atoms: _373  and  _376
REMARK  150  A    between atoms: _376  and  _377
REMARK  151  A    between atoms: _382  and  _383
REMARK  152  A    between atoms: _385  and  _387
REMARK  153  A    between atoms: _387  and  _388
REMARK  154  A    between atoms: _387  and  _390
REMARK  155  A    between atoms: _390  and  _391
REMARK  156  A    between atoms: _394  and  _396
REMARK  157  A    between atoms: _396  and  _397
REMARK  158  A    between atoms: _396  and  _399
REMARK  159  A    between atoms: _402  and  _404
REMARK  160  A    between atoms: _404  and  _405
REMARK  161  A    between atoms: _404  and  _407
REMARK  162  A    between atoms: _407  and  _408
REMARK  163  A    between atoms: _411  and  _413
REMARK  164  A    between atoms: _413  and  _414
REMARK  165  A    between atoms: _413  and  _416
REMARK  166  A    between atoms: _416  and  _417
REMARK  167  A    between atoms: _420  and  _422
REMARK  168  A    between atoms: _422  and  _423
REMARK  169  A    between atoms: _425  and  _427
REMARK  170  A    between atoms: _427  and  _428
REMARK  171  A    between atoms: _431  and  _433
REMARK  172  A    between atoms: _433  and  _434
REMARK  173  A    between atoms: _433  and  _436
REMARK  174  A    between atoms: _436  and  _437
REMARK  175  A    between atoms: _439  and  _441
REMARK  176  A    between atoms: _441  and  _442
REMARK  177  A    between atoms: _441  and  _444
REMARK  178  A    between atoms: _444  and  _445
REMARK  179  A    between atoms: _450  and  _451
REMARK  180  A    between atoms: _453  and  _455
REMARK  181  A    between atoms: _455  and  _456
REMARK  182  A    between atoms: _455  and  _458
REMARK  183  A    between atoms: _458  and  _459
REMARK  184  A    between atoms: _462  and  _464
REMARK  185  A    between atoms: _464  and  _465
REMARK  186  A    between atoms: _464  and  _467
REMARK  187  A    between atoms: _467  and  _468
REMARK  188  A    between atoms: _470  and  _472
REMARK  189  A    between atoms: _472  and  _473
REMARK  190  A    between atoms: _475  and  _477
REMARK  191  A    between atoms: _477  and  _478
REMARK  192  A    between atoms: _477  and  _480
REMARK  193  A    between atoms: _480  and  _481
REMARK  194  A    between atoms: _481  and  _482
REMARK  195  A    between atoms: _482  and  _483
REMARK  196  A    between atoms: _483  and  _484
REMARK  197  A    between atoms: _488  and  _490
REMARK  198  A    between atoms: _490  and  _491
REMARK  199  A    between atoms: _490  and  _493
REMARK  200  A    between atoms: _493  and  _494
REMARK  201  A    between atoms: _500  and  _502
REMARK  202  A    between atoms: _502  and  _503
REMARK  203  A    between atoms: _502  and  _505
REMARK  204  A    between atoms: _505  and  _506
REMARK  205  A    between atoms: _509  and  _511
REMARK  206  A    between atoms: _511  and  _512
REMARK  207  A    between atoms: _511  and  _514
REMARK  208  A    between atoms: _514  and  _515
REMARK  209  A    between atoms: _520  and  _521
REMARK  210  A    between atoms: _523  and  _525
REMARK  211  A    between atoms: _525  and  _526
REMARK  212  A    between atoms: _529  and  _531
REMARK  213  A    between atoms: _531  and  _532
REMARK  214  A    between atoms: _531  and  _534
REMARK  215  A    between atoms: _534  and  _535
REMARK  216  A    between atoms: _538  and  _540
REMARK  217  A    between atoms: _540  and  _541
REMARK  218  A    between atoms: _540  and  _543
REMARK  219  A    between atoms: _543  and  _544
REMARK  220  A    between atoms: _549  and  _551
REMARK  221  A    between atoms: _551  and  _552
REMARK  222  A    between atoms: _555  and  _557
REMARK  223  A    between atoms: _557  and  _558
REMARK  224  A    between atoms: _557  and  _560
REMARK  225  A    between atoms: _560  and  _561
REMARK  226  A    between atoms: _561  and  _562
REMARK  227  A    between atoms: _564  and  _566
REMARK  228  A    between atoms: _566  and  _567
REMARK  229  A    between atoms: _566  and  _569
REMARK  230  A    between atoms: _569  and  _570
REMARK  231  A    between atoms: _573  and  _575
REMARK  232  A    between atoms: _575  and  _576
REMARK  233  A    between atoms: _575  and  _578
REMARK  234  A    between atoms: _578  and  _579
REMARK  235  A    between atoms: _582  and  _584
REMARK  236  A    between atoms: _584  and  _585
REMARK  237  A    between atoms: _588  and  _590
REMARK  238  A    between atoms: _590  and  _591
REMARK  239  A    between atoms: _590  and  _593
REMARK  240  A    between atoms: _593  and  _594
REMARK  241  A    between atoms: _597  and  _599
REMARK  242  A    between atoms: _599  and  _600
REMARK  243  A    between atoms: _602  and  _604
REMARK  244  A    between atoms: _604  and  _605
REMARK  245  A    between atoms: _608  and  _610
REMARK  246  A    between atoms: _610  and  _611
REMARK  247  A    between atoms: _610  and  _613
REMARK  248  A    between atoms: _613  and  _614
REMARK  249  A    between atoms: _617  and  _619
REMARK  250  A    between atoms: _619  and  _620
REMARK  251  A    between atoms: _619  and  _622
REMARK  252  A    between atoms: _622  and  _623
REMARK  253  A    between atoms: _626  and  _628
REMARK  254  A    between atoms: _628  and  _629
REMARK  255  A    between atoms: _628  and  _631
REMARK  256  A    between atoms: _631  and  _632
REMARK  257  A    between atoms: _632  and  _633
REMARK  258  A    between atoms: _633  and  _634
REMARK  259  A    between atoms: _643  and  _645
REMARK  260  A    between atoms: _645  and  _646
REMARK  261  A    between atoms: _645  and  _648
REMARK  262  A    between atoms: _648  and  _649
REMARK  263  A    between atoms: _649  and  _650
REMARK  264  A    between atoms: _650  and  _651
REMARK  265  A    between atoms: _651  and  _652
REMARK  266  A    between atoms: _656  and  _658
REMARK  267  A    between atoms: _658  and  _659
REMARK  268  A    between atoms: _658  and  _661
REMARK  269  A    between atoms: _661  and  _662
REMARK  270  A    between atoms: _667  and  _669
REMARK  271  A    between atoms: _669  and  _670
REMARK  272  A    between atoms: _669  and  _672
REMARK  273  A    between atoms: _672  and  _673
REMARK  274  A    between atoms: _673  and  _674
REMARK  275  A    between atoms: _677  and  _679
REMARK  276  A    between atoms: _679  and  _680
REMARK  277  A    between atoms: _679  and  _682
REMARK  278  A    between atoms: _682  and  _683
REMARK  279  A    between atoms: _686  and  _688
REMARK  280  A    between atoms: _688  and  _689
REMARK  281  A    between atoms: _688  and  _691
REMARK  282  A    between atoms: _691  and  _692
REMARK                            x       y       z     vdW  Elec       q    Type
REMARK                         _______ _______ _______ _____ _____    ______ ____
ROOT
ATOM      1  CA  SER A   1     -43.076 -26.960 -31.584  0.00  0.00    +0.163 C 
ENDROOT
BRANCH   1   2
ATOM      2  N   SER A   1     -42.152 -26.583 -30.511  0.00  0.00    -0.237 NA
ATOM      3  H   SER A   1     -42.101 -25.582 -30.232  0.00  0.00    +0.142 HD
ENDBRANCH   1   2
BRANCH   1   4
ATOM      4  C   SER A   1     -42.362 -27.425 -32.870  0.00  0.00    +0.227 C 
ATOM      5  O   SER A   1     -43.009 -27.844 -33.814  0.00  0.00    -0.287 OA
ENDBRANCH   1   4
BRANCH   1   6
ATOM      6  CB  SER A   1     -44.053 -25.798 -31.914  0.00  0.00    +0.162 C 
BRANCH   6   7
ATOM      7  OG  SER A   1     -43.394 -24.550 -32.127  0.00  0.00    -0.380 OA
ATOM      8  H   SER A   1     -44.067 -23.854 -32.332  0.00  0.00    +0.211 HD
ENDBRANCH   6   7
ENDBRANCH   1   6
TORSDOF 4
REMARK  Name = ../refined-set-2016/2il2/2il2_pocket.pdb
REMARK  282 active torsions:
REMARK  status: ('A' for Active; 'I' for Inactive)
REMARK    1  A    between atoms: _1  and  _3
REMARK    2  A    between atoms: _3  and  _4
REMARK    3  A    between atoms: _3  and  _6
REMARK    4  A    between atoms: _6  and  _7
REMARK    5  A    between atoms: _10  and  _12
REMARK    6  A    between atoms: _12  and  _13
REMARK    7  A    between atoms: _12  and  _15
REMARK    8  A    between atoms: _15  and  _16
REMARK    9  A    between atoms: _19  and  _21
REMARK   10  A    between atoms: _21  and  _22
REMARK   11  A    between atoms: _21  and  _24
REMARK   12  A    between atoms: _24  and  _25
REMARK   13  A    between atoms: _30  and  _31
REMARK   14  A    between atoms: _33  and  _35
REMARK   15  A    between atoms: _35  and  _36
REMARK   16  A    between atoms: _35  and  _38
REMARK   17  A    between atoms: _38  and  _39
REMARK   18  A    between atoms: _42  and  _44
REMARK   19  A    between atoms: _44  and  _45
REMARK   20  A    between atoms: _44  and  _47
REMARK   21  A    between atoms: _47  and  _48
REMARK   22  A    between atoms: _51  and  _53
REMARK   23  A    between atoms: _53  and  _54
REMARK   24  A    between atoms: _53  and  _56
REMARK   25  A    between atoms: _56  and  _57
REMARK   26  A    between atoms: _57  and  _58
REMARK   27  A    between atoms: _63  and  _65
REMARK   28  A    between atoms: _65  and  _66
REMARK   29  A    between atoms: _65  and  _68
REMARK   30  A    between atoms: _68  and  _69
REMARK   31  A    between atoms: _74  and  _75
REMARK   32  A    between atoms: _77  and  _79
REMARK   33  A    between atoms: _79  and  _80
REMARK   34  A    between atoms: _79  and  _82
REMARK   35  A    between atoms: _82  and  _83
REMARK   36  A    between atoms: _88  and  _89
REMARK   37  A    between atoms: _91  and  _93
REMARK   38  A    between atoms: _93  and  _94
REMARK   39  A    between atoms: _93  and  _96
REMARK   40  A    between atoms: _99  and  _101
REMARK   41  A    between atoms: _101  and  _102
REMARK   42  A    between atoms: _101  and  _104
REMARK   43  A    between atoms: _107  and  _109
REMARK   44  A    between atoms: _109  and  _110
REMARK   45  A    between atoms: _109  and  _112
REMARK   46  A    between atoms: _112  and  _113
REMARK   47  A    between atoms: _119  and  _121
REMARK   48  A    between atoms: _121  and  _122
REMARK   49  A    between atoms: _121  and  _124
REMARK   50  A    between atoms: _124  and  _125
REMARK   51  A    between atoms: _128  and  _130
REMARK   52  A    between atoms: _130  and  _131
REMARK   53  A    between atoms: _130  and  _133
REMARK   54  A    between atoms: _133  and  _134
REMARK   55  A    between atoms: _137  and  _139
REMARK   56  A    between atoms: _139  and  _140
REMARK   57  A    between atoms: _142  and  _144
REMARK   58  A    between atoms: _144  and  _145
REMARK   59  A    between atoms: _144  and  _147
REMARK   60  A    between atoms: _147  and  _148
REMARK   61  A    between atoms: _150  and  _152
REMARK   62  A    between atoms: _152  and  _153
REMARK   63  A    between atoms: _152  and  _155
REMARK   64  A    between atoms: _155  and  _156
REMARK   65  A    between atoms: _158  and  _160
REMARK   66  A    between atoms: _160  and  _161
REMARK   67  A    between atoms: _160  and  _163
REMARK   68  A    between atoms: _163  and  _164
REMARK   69  A    between atoms: _174  and  _176
REMARK   70  A    between atoms: _176  and  _177
REMARK   71  A    between atoms: _176  and  _179
REMARK   72  A    between atoms: _179  and  _180
REMARK   73  A    between atoms: _180  and  _181
REMARK   74  A    between atoms: _181  and  _182
REMARK   75  A    between atoms: _191  and  _193
REMARK   76  A    between atoms: _193  and  _194
REMARK   77  A    between atoms: _193  and  _196
REMARK   78  A    between atoms: _196  and  _197
REMARK   79  A    between atoms: _202  and  _203
REMARK   80  A    between atoms: _205  and  _207
REMARK   81  A    between atoms: _207  and  _208
REMARK   82  A    between atoms: _207  and  _210
REMARK   83  A    between atoms: _210  and  _211
REMARK   84  A    between atoms: _213  and  _215
REMARK   85  A    between atoms: _215  and  _216
REMARK   86  A    between atoms: _215  and  _218
REMARK   87  A    between atoms: _218  and  _219
REMARK   88  A    between atoms: _222  and  _224
REMARK   89  A    between atoms: _224  and  _225
REMARK   90  A    between atoms: _227  and  _229
REMARK   91  A    between atoms: _229  and  _230
REMARK   92  A    between atoms: _229  and  _232
REMARK   93  A    between atoms: _232  and  _233
REMARK   94  A    between atoms: _236  and  _238
REMARK   95  A    between atoms: _238  and  _239
REMARK   96  A    between atoms: _238  and  _241
REMARK   97  A    between atoms: _244  and  _246
REMARK   98  A    between atoms: _246  and  _247
REMARK   99  A    between atoms: _250  and  _252
REMARK  100  A    between atoms: _252  and  _253
REMARK  101  A    between atoms: _252  and  _255
REMARK  102  A    between atoms: _255  and  _256
REMARK  103  A    between atoms: _260  and  _261
REMARK  104  A    between atoms: _266  and  _268
REMARK  105  A    between atoms: _268  and  _269
REMARK  106  A    between atoms: _268  and  _271
REMARK  107  A    between atoms: _271  and  _272
REMARK  108  A    between atoms: _278  and  _280
REMARK  109  A    between atoms: _280  and  _281
REMARK  110  A    between atoms: _280  and  _283
REMARK  111  A    between atoms: _283  and  _284
REMARK  112  A    between atoms: _284  and  _285
REMARK  113  A    between atoms: _287  and  _289
REMARK  114  A    between atoms: _289  and  _290
REMARK  115  A    between atoms: _289  and  _292
REMARK  116  A    between atoms: _292  and  _293
REMARK  117  A    between atoms: _296  and  _298
REMARK  118  A    between atoms: _298  and  _299
REMARK  119  A    between atoms: _302  and  _304
REMARK  120  A    between atoms: _304  and  _305
REMARK  121  A    between atoms: _304  and  _307
REMARK  122  A    between atoms: _307  and  _308
REMARK  123  A    between atoms: _308  and  _309
REMARK  124  A    between atoms: _312  and  _314
REMARK  125  A    between atoms: _314  and  _315
REMARK  126  A    between atoms: _314  and  _317
REMARK  127  A    between atoms: _317  and  _318
REMARK  128  A    between atoms: _324  and  _326
REMARK  129  A    between atoms: _326  and  _327
REMARK  130  A    between atoms: _329  and  _331
REMARK  131  A    between atoms: _331  and  _332
REMARK  132  A    between atoms: _331  and  _334
REMARK  133  A    between atoms: _337  and  _339
REMARK  134  A    between atoms: _339  and  _340
REMARK  135  A    between atoms: _339  and  _342
REMARK  136  A    between atoms: _345  and  _347
REMARK  137  A    between atoms: _347  and  _348
REMARK  138  A    between atoms: _350  and  _352
REMARK  139  A    between atoms: _352  and  _353
REMARK  140  A    between atoms: _352  and  _355
REMARK  141  A    between atoms: _355  and  _356
REMARK  142  A    between atoms: _356  and  _357
REMARK  143  A    between atoms: _359  and  _361
REMARK  144  A    between atoms: _361  and  _362
REMARK  145  A    between atoms: _361  and  _364
REMARK  146  A    between atoms: _364  and  _365
REMARK  147  A    between atoms: _371  and  _373
REMARK  148  A    between atoms: _373  and  _374
REMARK  149  A    between atoms: _373  and  _376
REMARK  150  A    between atoms: _376  and  _377
REMARK  151  A    between atoms: _382  and  _383
REMARK  152  A    between atoms: _385  and  _387
REMARK  153  A    between atoms: _387  and  _388
REMARK  154  A    between atoms: _387  and  _390
REMARK  155  A    between atoms: _390  and  _391
REMARK  156  A    between atoms: _394  and  _396
REMARK  157  A    between atoms: _396  and  _397
REMARK  158  A    between atoms: _396  and  _399
REMARK  159  A    between atoms: _402  and  _404
REMARK  160  A    between atoms: _404  and  _405
REMARK  161  A    between atoms: _404  and  _407
REMARK  162  A    between atoms: _407  and  _408
REMARK  163  A    between atoms: _411  and  _413
REMARK  164  A    between atoms: _413  and  _414
REMARK  165  A    between atoms: _413  and  _416
REMARK  166  A    between atoms: _416  and  _417
REMARK  167  A    between atoms: _420  and  _422
REMARK  168  A    between atoms: _422  and  _423
REMARK  169  A    between atoms: _425  and  _427
REMARK  170  A    between atoms: _427  and  _428
REMARK  171  A    between atoms: _431  and  _433
REMARK  172  A    between atoms: _433  and  _434
REMARK  173  A    between atoms: _433  and  _436
REMARK  174  A    between atoms: _436  and  _437
REMARK  175  A    between atoms: _439  and  _441
REMARK  176  A    between atoms: _441  and  _442
REMARK  177  A    between atoms: _441  and  _444
REMARK  178  A    between atoms: _444  and  _445
REMARK  179  A    between atoms: _450  and  _451
REMARK  180  A    between atoms: _453  and  _455
REMARK  181  A    between atoms: _455  and  _456
REMARK  182  A    between atoms: _455  and  _458
REMARK  183  A    between atoms: _458  and  _459
REMARK  184  A    between atoms: _462  and  _464
REMARK  185  A    between atoms: _464  and  _465
REMARK  186  A    between atoms: _464  and  _467
REMARK  187  A    between atoms: _467  and  _468
REMARK  188  A    between atoms: _470  and  _472
REMARK  189  A    between atoms: _472  and  _473
REMARK  190  A    between atoms: _475  and  _477
REMARK  191  A    between atoms: _477  and  _478
REMARK  192  A    between atoms: _477  and  _480
REMARK  193  A    between atoms: _480  and  _481
REMARK  194  A    between atoms: _481  and  _482
REMARK  195  A    between atoms: _482  and  _483
REMARK  196  A    between atoms: _483  and  _484
REMARK  197  A    between atoms: _488  and  _490
REMARK  198  A    between atoms: _490  and  _491
REMARK  199  A    between atoms: _490  and  _493
REMARK  200  A    between atoms: _493  and  _494
REMARK  201  A    between atoms: _500  and  _502
REMARK  202  A    between atoms: _502  and  _503
REMARK  203  A    between atoms: _502  and  _505
REMARK  204  A    between atoms: _505  and  _506
REMARK  205  A    between atoms: _509  and  _511
REMARK  206  A    between atoms: _511  and  _512
REMARK  207  A    between atoms: _511  and  _514
REMARK  208  A    between atoms: _514  and  _515
REMARK  209  A    between atoms: _520  and  _521
REMARK  210  A    between atoms: _523  and  _525
REMARK  211  A    between atoms: _525  and  _526
REMARK  212  A    between atoms: _529  and  _531
REMARK  213  A    between atoms: _531  and  _532
REMARK  214  A    between atoms: _531  and  _534
REMARK  215  A    between atoms: _534  and  _535
REMARK  216  A    between atoms: _538  and  _540
REMARK  217  A    between atoms: _540  and  _541
REMARK  218  A    between atoms: _540  and  _543
REMARK  219  A    between atoms: _543  and  _544
REMARK  220  A    between atoms: _549  and  _551
REMARK  221  A    between atoms: _551  and  _552
REMARK  222  A    between atoms: _555  and  _557
REMARK  223  A    between atoms: _557  and  _558
REMARK  224  A    between atoms: _557  and  _560
REMARK  225  A    between atoms: _560  and  _561
REMARK  226  A    between atoms: _561  and  _562
REMARK  227  A    between atoms: _564  and  _566
REMARK  228  A    between atoms: _566  and  _567
REMARK  229  A    between atoms: _566  and  _569
REMARK  230  A    between atoms: _569  and  _570
REMARK  231  A    between atoms: _573  and  _575
REMARK  232  A    between atoms: _575  and  _576
REMARK  233  A    between atoms: _575  and  _578
REMARK  234  A    between atoms: _578  and  _579
REMARK  235  A    between atoms: _582  and  _584
REMARK  236  A    between atoms: _584  and  _585
REMARK  237  A    between atoms: _588  and  _590
REMARK  238  A    between atoms: _590  and  _591
REMARK  239  A    between atoms: _590  and  _593
REMARK  240  A    between atoms: _593  and  _594
REMARK  241  A    between atoms: _597  and  _599
REMARK  242  A    between atoms: _599  and  _600
REMARK  243  A    between atoms: _602  and  _604
REMARK  244  A    between atoms: _604  and  _605
REMARK  245  A    between atoms: _608  and  _610
REMARK  246  A    between atoms: _610  and  _611
REMARK  247  A    between atoms: _610  and  _613
REMARK  248  A    between atoms: _613  and  _614
REMARK  249  A    between atoms: _617  and  _619
REMARK  250  A    between atoms: _619  and  _620
REMARK  251  A    between atoms: _619  and  _622
REMARK  252  A    between atoms: _622  and  _623
REMARK  253  A    between atoms: _626  and  _628
REMARK  254  A    between atoms: _628  and  _629
REMARK  255  A    between atoms: _628  and  _631
REMARK  256  A    between atoms: _631  and  _632
REMARK  257  A    between atoms: _632  and  _633
REMARK  258  A    between atoms: _633  and  _634
REMARK  259  A    between atoms: _643  and  _645
REMARK  260  A    between atoms: _645  and  _646
REMARK  261  A    between atoms: _645  and  _648
REMARK  262  A    between atoms: _648  and  _649
REMARK  263  A    between atoms: _649  and  _650
REMARK  264  A    between atoms: _650  and  _651
REMARK  265  A    between atoms: _651  and  _652
REMARK  266  A    between atoms: _656  and  _658
REMARK  267  A    between atoms: _658  and  _659
REMARK  268  A    between atoms: _658  and  _661
REMARK  269  A    between atoms: _661  and  _662
REMARK  270  A    between atoms: _667  and  _669
REMARK  271  A    between atoms: _669  and  _670
REMARK  272  A    between atoms: _669  and  _672
REMARK  273  A    between atoms: _672  and  _673
REMARK  274  A    between atoms: _673  and  _674
REMARK  275  A    between atoms: _677  and  _679
REMARK  276  A    between atoms: _679  and  _680
REMARK  277  A    between atoms: _679  and  _682
REMARK  278  A    between atoms: _682  and  _683
REMARK  279  A    between atoms: _686  and  _688
REMARK  280  A    between atoms: _688  and  _689
REMARK  281  A    between atoms: _688  and  _691
REMARK  282  A    between atoms: _691  and  _692
REMARK                            x       y       z     vdW  Elec       q    Type
REMARK                         _______ _______ _______ _____ _____    ______ ____
ROOT
ATOM      1  O   HOH     1     -49.709 -28.882 -42.596  0.00  0.00    +0.000 OA
ENDROOT
TORSDOF 0
REMARK  Name = ../refined-set-2016/2il2/2il2_pocket.pdb
REMARK  282 active torsions:
REMARK  status: ('A' for Active; 'I' for Inactive)
REMARK    1  A    between atoms: _1  and  _3
REMARK    2  A    between atoms: _3  and  _4
REMARK    3  A    between atoms: _3  and  _6
REMARK    4  A    between atoms: _6  and  _7
REMARK    5  A    between atoms: _10  and  _12
REMARK    6  A    between atoms: _12  and  _13
REMARK    7  A    between atoms: _12  and  _15
REMARK    8  A    between atoms: _15  and  _16
REMARK    9  A    between atoms: _19  and  _21
REMARK   10  A    between atoms: _21  and  _22
REMARK   11  A    between atoms: _21  and  _24
REMARK   12  A    between atoms: _24  and  _25
REMARK   13  A    between atoms: _30  and  _31
REMARK   14  A    between atoms: _33  and  _35
REMARK   15  A    between atoms: _35  and  _36
REMARK   16  A    between atoms: _35  and  _38
REMARK   17  A    between atoms: _38  and  _39
REMARK   18  A    between atoms: _42  and  _44
REMARK   19  A    between atoms: _44  and  _45
REMARK   20  A    between atoms: _44  and  _47
REMARK   21  A    between atoms: _47  and  _48
REMARK   22  A    between atoms: _51  and  _53
REMARK   23  A    between atoms: _53  and  _54
REMARK   24  A    between atoms: _53  and  _56
REMARK   25  A    between atoms: _56  and  _57
REMARK   26  A    between atoms: _57  and  _58
REMARK   27  A    between atoms: _63  and  _65
REMARK   28  A    between atoms: _65  and  _66
REMARK   29  A    between atoms: _65  and  _68
REMARK   30  A    between atoms: _68  and  _69
REMARK   31  A    between atoms: _74  and  _75
REMARK   32  A    between atoms: _77  and  _79
REMARK   33  A    between atoms: _79  and  _80
REMARK   34  A    between atoms: _79  and  _82
REMARK   35  A    between atoms: _82  and  _83
REMARK   36  A    between atoms: _88  and  _89
REMARK   37  A    between atoms: _91  and  _93
REMARK   38  A    between atoms: _93  and  _94
REMARK   39  A    between atoms: _93  and  _96
REMARK   40  A    between atoms: _99  and  _101
REMARK   41  A    between atoms: _101  and  _102
REMARK   42  A    between atoms: _101  and  _104
REMARK   43  A    between atoms: _107  and  _109
REMARK   44  A    between atoms: _109  and  _110
REMARK   45  A    between atoms: _109  and  _112
REMARK   46  A    between atoms: _112  and  _113
REMARK   47  A    between atoms: _119  and  _121
REMARK   48  A    between atoms: _121  and  _122
REMARK   49  A    between atoms: _121  and  _124
REMARK   50  A    between atoms: _124  and  _125
REMARK   51  A    between atoms: _128  and  _130
REMARK   52  A    between atoms: _130  and  _131
REMARK   53  A    between atoms: _130  and  _133
REMARK   54  A    between atoms: _133  and  _134
REMARK   55  A    between atoms: _137  and  _139
REMARK   56  A    between atoms: _139  and  _140
REMARK   57  A    between atoms: _142  and  _144
REMARK   58  A    between atoms: _144  and  _145
REMARK   59  A    between atoms: _144  and  _147
REMARK   60  A    between atoms: _147  and  _148
REMARK   61  A    between atoms: _150  and  _152
REMARK   62  A    between atoms: _152  and  _153
REMARK   63  A    between atoms: _152  and  _155
REMARK   64  A    between atoms: _155  and  _156
REMARK   65  A    between atoms: _158  and  _160
REMARK   66  A    between atoms: _160  and  _161
REMARK   67  A    between atoms: _160  and  _163
REMARK   68  A    between atoms: _163  and  _164
REMARK   69  A    between atoms: _174  and  _176
REMARK   70  A    between atoms: _176  and  _177
REMARK   71  A    between atoms: _176  and  _179
REMARK   72  A    between atoms: _179  and  _180
REMARK   73  A    between atoms: _180  and  _181
REMARK   74  A    between atoms: _181  and  _182
REMARK   75  A    between atoms: _191  and  _193
REMARK   76  A    between atoms: _193  and  _194
REMARK   77  A    between atoms: _193  and  _196
REMARK   78  A    between atoms: _196  and  _197
REMARK   79  A    between atoms: _202  and  _203
REMARK   80  A    between atoms: _205  and  _207
REMARK   81  A    between atoms: _207  and  _208
REMARK   82  A    between atoms: _207  and  _210
REMARK   83  A    between atoms: _210  and  _211
REMARK   84  A    between atoms: _213  and  _215
REMARK   85  A    between atoms: _215  and  _216
REMARK   86  A    between atoms: _215  and  _218
REMARK   87  A    between atoms: _218  and  _219
REMARK   88  A    between atoms: _222  and  _224
REMARK   89  A    between atoms: _224  and  _225
REMARK   90  A    between atoms: _227  and  _229
REMARK   91  A    between atoms: _229  and  _230
REMARK   92  A    between atoms: _229  and  _232
REMARK   93  A    between atoms: _232  and  _233
REMARK   94  A    between atoms: _236  and  _238
REMARK   95  A    between atoms: _238  and  _239
REMARK   96  A    between atoms: _238  and  _241
REMARK   97  A    between atoms: _244  and  _246
REMARK   98  A    between atoms: _246  and  _247
REMARK   99  A    between atoms: _250  and  _252
REMARK  100  A    between atoms: _252  and  _253
REMARK  101  A    between atoms: _252  and  _255
REMARK  102  A    between atoms: _255  and  _256
REMARK  103  A    between atoms: _260  and  _261
REMARK  104  A    between atoms: _266  and  _268
REMARK  105  A    between atoms: _268  and  _269
REMARK  106  A    between atoms: _268  and  _271
REMARK  107  A    between atoms: _271  and  _272
REMARK  108  A    between atoms: _278  and  _280
REMARK  109  A    between atoms: _280  and  _281
REMARK  110  A    between atoms: _280  and  _283
REMARK  111  A    between atoms: _283  and  _284
REMARK  112  A    between atoms: _284  and  _285
REMARK  113  A    between atoms: _287  and  _289
REMARK  114  A    between atoms: _289  and  _290
REMARK  115  A    between atoms: _289  and  _292
REMARK  116  A    between atoms: _292  and  _293
REMARK  117  A    between atoms: _296  and  _298
REMARK  118  A    between atoms: _298  and  _299
REMARK  119  A    between atoms: _302  and  _304
REMARK  120  A    between atoms: _304  and  _305
REMARK  121  A    between atoms: _304  and  _307
REMARK  122  A    between atoms: _307  and  _308
REMARK  123  A    between atoms: _308  and  _309
REMARK  124  A    between atoms: _312  and  _314
REMARK  125  A    between atoms: _314  and  _315
REMARK  126  A    between atoms: _314  and  _317
REMARK  127  A    between atoms: _317  and  _318
REMARK  128  A    between atoms: _324  and  _326
REMARK  129  A    between atoms: _326  and  _327
REMARK  130  A    between atoms: _329  and  _331
REMARK  131  A    between atoms: _331  and  _332
REMARK  132  A    between atoms: _331  and  _334
REMARK  133  A    between atoms: _337  and  _339
REMARK  134  A    between atoms: _339  and  _340
REMARK  135  A    between atoms: _339  and  _342
REMARK  136  A    between atoms: _345  and  _347
REMARK  137  A    between atoms: _347  and  _348
REMARK  138  A    between atoms: _350  and  _352
REMARK  139  A    between atoms: _352  and  _353
REMARK  140  A    between atoms: _352  and  _355
REMARK  141  A    between atoms: _355  and  _356
REMARK  142  A    between atoms: _356  and  _357
REMARK  143  A    between atoms: _359  and  _361
REMARK  144  A    between atoms: _361  and  _362
REMARK  145  A    between atoms: _361  and  _364
REMARK  146  A    between atoms: _364  and  _365
REMARK  147  A    between atoms: _371  and  _373
REMARK  148  A    between atoms: _373  and  _374
REMARK  149  A    between atoms: _373  and  _376
REMARK  150  A    between atoms: _376  and  _377
REMARK  151  A    between atoms: _382  and  _383
REMARK  152  A    between atoms: _385  and  _387
REMARK  153  A    between atoms: _387  and  _388
REMARK  154  A    between atoms: _387  and  _390
REMARK  155  A    between atoms: _390  and  _391
REMARK  156  A    between atoms: _394  and  _396
REMARK  157  A    between atoms: _396  and  _397
REMARK  158  A    between atoms: _396  and  _399
REMARK  159  A    between atoms: _402  and  _404
REMARK  160  A    between atoms: _404  and  _405
REMARK  161  A    between atoms: _404  and  _407
REMARK  162  A    between atoms: _407  and  _408
REMARK  163  A    between atoms: _411  and  _413
REMARK  164  A    between atoms: _413  and  _414
REMARK  165  A    between atoms: _413  and  _416
REMARK  166  A    between atoms: _416  and  _417
REMARK  167  A    between atoms: _420  and  _422
REMARK  168  A    between atoms: _422  and  _423
REMARK  169  A    between atoms: _425  and  _427
REMARK  170  A    between atoms: _427  and  _428
REMARK  171  A    between atoms: _431  and  _433
REMARK  172  A    between atoms: _433  and  _434
REMARK  173  A    between atoms: _433  and  _436
REMARK  174  A    between atoms: _436  and  _437
REMARK  175  A    between atoms: _439  and  _441
REMARK  176  A    between atoms: _441  and  _442
REMARK  177  A    between atoms: _441  and  _444
REMARK  178  A    between atoms: _444  and  _445
REMARK  179  A    between atoms: _450  and  _451
REMARK  180  A    between atoms: _453  and  _455
REMARK  181  A    between atoms: _455  and  _456
REMARK  182  A    between atoms: _455  and  _458
REMARK  183  A    between atoms: _458  and  _459
REMARK  184  A    between atoms: _462  and  _464
REMARK  185  A    between atoms: _464  and  _465
REMARK  186  A    between atoms: _464  and  _467
REMARK  187  A    between atoms: _467  and  _468
REMARK  188  A    between atoms: _470  and  _472
REMARK  189  A    between atoms: _472  and  _473
REMARK  190  A    between atoms: _475  and  _477
REMARK  191  A    between atoms: _477  and  _478
REMARK  192  A    between atoms: _477  and  _480
REMARK  193  A    between atoms: _480  and  _481
REMARK  194  A    between atoms: _481  and  _482
REMARK  195  A    between atoms: _482  and  _483
REMARK  196  A    between atoms: _483  and  _484
REMARK  197  A    between atoms: _488  and  _490
REMARK  198  A    between atoms: _490  and  _491
REMARK  199  A    between atoms: _490  and  _493
REMARK  200  A    between atoms: _493  and  _494
REMARK  201  A    between atoms: _500  and  _502
REMARK  202  A    between atoms: _502  and  _503
REMARK  203  A    between atoms: _502  and  _505
REMARK  204  A    between atoms: _505  and  _506
REMARK  205  A    between atoms: _509  and  _511
REMARK  206  A    between atoms: _511  and  _512
REMARK  207  A    between atoms: _511  and  _514
REMARK  208  A    between atoms: _514  and  _515
REMARK  209  A    between atoms: _520  and  _521
REMARK  210  A    between atoms: _523  and  _525
REMARK  211  A    between atoms: _525  and  _526
REMARK  212  A    between atoms: _529  and  _531
REMARK  213  A    between atoms: _531  and  _532
REMARK  214  A    between atoms: _531  and  _534
REMARK  215  A    between atoms: _534  and  _535
REMARK  216  A    between atoms: _538  and  _540
REMARK  217  A    between atoms: _540  and  _541
REMARK  218  A    between atoms: _540  and  _543
REMARK  219  A    between atoms: _543  and  _544
REMARK  220  A    between atoms: _549  and  _551
REMARK  221  A    between atoms: _551  and  _552
REMARK  222  A    between atoms: _555  and  _557
REMARK  223  A    between atoms: _557  and  _558
REMARK  224  A    between atoms: _557  and  _560
REMARK  225  A    between atoms: _560  and  _561
REMARK  226  A    between atoms: _561  and  _562
REMARK  227  A    between atoms: _564  and  _566
REMARK  228  A    between atoms: _566  and  _567
REMARK  229  A    between atoms: _566  and  _569
REMARK  230  A    between atoms: _569  and  _570
REMARK  231  A    between atoms: _573  and  _575
REMARK  232  A    between atoms: _575  and  _576
REMARK  233  A    between atoms: _575  and  _578
REMARK  234  A    between atoms: _578  and  _579
REMARK  235  A    between atoms: _582  and  _584
REMARK  236  A    between atoms: _584  and  _585
REMARK  237  A    between atoms: _588  and  _590
REMARK  238  A    between atoms: _590  and  _591
REMARK  239  A    between atoms: _590  and  _593
REMARK  240  A    between atoms: _593  and  _594
REMARK  241  A    between atoms: _597  and  _599
REMARK  242  A    between atoms: _599  and  _600
REMARK  243  A    between atoms: _602  and  _604
REMARK  244  A    between atoms: _604  and  _605
REMARK  245  A    between atoms: _608  and  _610
REMARK  246  A    between atoms: _610  and  _611
REMARK  247  A    between atoms: _610  and  _613
REMARK  248  A    between atoms: _613  and  _614
REMARK  249  A    between atoms: _617  and  _619
REMARK  250  A    between atoms: _619  and  _620
REMARK  251  A    between atoms: _619  and  _622
REMARK  252  A    between atoms: _622  and  _623
REMARK  253  A    between atoms: _626  and  _628
REMARK  254  A    between atoms: _628  and  _629
REMARK  255  A    between atoms: _628  and  _631
REMARK  256  A    between atoms: _631  and  _632
REMARK  257  A    between atoms: _632  and  _633
REMARK  258  A    between atoms: _633  and  _634
REMARK  259  A    between atoms: _643  and  _645
REMARK  260  A    between atoms: _645  and  _646
REMARK  261  A    between atoms: _645  and  _648
REMARK  262  A    between atoms: _648  and  _649
REMARK  263  A    between atoms: _649  and  _650
REMARK  264  A    between atoms: _650  and  _651
REMARK  265  A    between atoms: _651  and  _652
REMARK  266  A    between atoms: _656  and  _658
REMARK  267  A    between atoms: _658  and  _659
REMARK  268  A    between atoms: _658  and  _661
REMARK  269  A    between atoms: _661  and  _662
REMARK  270  A    between atoms: _667  and  _669
REMARK  271  A    between atoms: _669  and  _670
REMARK  272  A    between atoms: _669  and  _672
REMARK  273  A    between atoms: _672  and  _673
REMARK  274  A    between atoms: _673  and  _674
REMARK  275  A    between atoms: _677  and  _679
REMARK  276  A    between atoms: _679  and  _680
REMARK  277  A    between atoms: _679  and  _682
REMARK  278  A    between atoms: _682  and  _683
REMARK  279  A    between atoms: _686  and  _688
REMARK  280  A    between atoms: _688  and  _689
REMARK  281  A    between atoms: _688  and  _691
REMARK  282  A    between atoms: _691  and  _692
REMARK                            x       y       z     vdW  Elec       q    Type
REMARK                         _______ _______ _______ _____ _____    ______ ____
ROOT
ATOM      1  O   HOH     1     -57.309 -28.214 -41.436  0.00  0.00    +0.000 OA
ENDROOT
TORSDOF 0
REMARK  Name = ../refined-set-2016/2il2/2il2_pocket.pdb
REMARK  282 active torsions:
REMARK  status: ('A' for Active; 'I' for Inactive)
REMARK    1  A    between atoms: _1  and  _3
REMARK    2  A    between atoms: _3  and  _4
REMARK    3  A    between atoms: _3  and  _6
REMARK    4  A    between atoms: _6  and  _7
REMARK    5  A    between atoms: _10  and  _12
REMARK    6  A    between atoms: _12  and  _13
REMARK    7  A    between atoms: _12  and  _15
REMARK    8  A    between atoms: _15  and  _16
REMARK    9  A    between atoms: _19  and  _21
REMARK   10  A    between atoms: _21  and  _22
REMARK   11  A    between atoms: _21  and  _24
REMARK   12  A    between atoms: _24  and  _25
REMARK   13  A    between atoms: _30  and  _31
REMARK   14  A    between atoms: _33  and  _35
REMARK   15  A    between atoms: _35  and  _36
REMARK   16  A    between atoms: _35  and  _38
REMARK   17  A    between atoms: _38  and  _39
REMARK   18  A    between atoms: _42  and  _44
REMARK   19  A    between atoms: _44  and  _45
REMARK   20  A    between atoms: _44  and  _47
REMARK   21  A    between atoms: _47  and  _48
REMARK   22  A    between atoms: _51  and  _53
REMARK   23  A    between atoms: _53  and  _54
REMARK   24  A    between atoms: _53  and  _56
REMARK   25  A    between atoms: _56  and  _57
REMARK   26  A    between atoms: _57  and  _58
REMARK   27  A    between atoms: _63  and  _65
REMARK   28  A    between atoms: _65  and  _66
REMARK   29  A    between atoms: _65  and  _68
REMARK   30  A    between atoms: _68  and  _69
REMARK   31  A    between atoms: _74  and  _75
REMARK   32  A    between atoms: _77  and  _79
REMARK   33  A    between atoms: _79  and  _80
REMARK   34  A    between atoms: _79  and  _82
REMARK   35  A    between atoms: _82  and  _83
REMARK   36  A    between atoms: _88  and  _89
REMARK   37  A    between atoms: _91  and  _93
REMARK   38  A    between atoms: _93  and  _94
REMARK   39  A    between atoms: _93  and  _96
REMARK   40  A    between atoms: _99  and  _101
REMARK   41  A    between atoms: _101  and  _102
REMARK   42  A    between atoms: _101  and  _104
REMARK   43  A    between atoms: _107  and  _109
REMARK   44  A    between atoms: _109  and  _110
REMARK   45  A    between atoms: _109  and  _112
REMARK   46  A    between atoms: _112  and  _113
REMARK   47  A    between atoms: _119  and  _121
REMARK   48  A    between atoms: _121  and  _122
REMARK   49  A    between atoms: _121  and  _124
REMARK   50  A    between atoms: _124  and  _125
REMARK   51  A    between atoms: _128  and  _130
REMARK   52  A    between atoms: _130  and  _131
REMARK   53  A    between atoms: _130  and  _133
REMARK   54  A    between atoms: _133  and  _134
REMARK   55  A    between atoms: _137  and  _139
REMARK   56  A    between atoms: _139  and  _140
REMARK   57  A    between atoms: _142  and  _144
REMARK   58  A    between atoms: _144  and  _145
REMARK   59  A    between atoms: _144  and  _147
REMARK   60  A    between atoms: _147  and  _148
REMARK   61  A    between atoms: _150  and  _152
REMARK   62  A    between atoms: _152  and  _153
REMARK   63  A    between atoms: _152  and  _155
REMARK   64  A    between atoms: _155  and  _156
REMARK   65  A    between atoms: _158  and  _160
REMARK   66  A    between atoms: _160  and  _161
REMARK   67  A    between atoms: _160  and  _163
REMARK   68  A    between atoms: _163  and  _164
REMARK   69  A    between atoms: _174  and  _176
REMARK   70  A    between atoms: _176  and  _177
REMARK   71  A    between atoms: _176  and  _179
REMARK   72  A    between atoms: _179  and  _180
REMARK   73  A    between atoms: _180  and  _181
REMARK   74  A    between atoms: _181  and  _182
REMARK   75  A    between atoms: _191  and  _193
REMARK   76  A    between atoms: _193  and  _194
REMARK   77  A    between atoms: _193  and  _196
REMARK   78  A    between atoms: _196  and  _197
REMARK   79  A    between atoms: _202  and  _203
REMARK   80  A    between atoms: _205  and  _207
REMARK   81  A    between atoms: _207  and  _208
REMARK   82  A    between atoms: _207  and  _210
REMARK   83  A    between atoms: _210  and  _211
REMARK   84  A    between atoms: _213  and  _215
REMARK   85  A    between atoms: _215  and  _216
REMARK   86  A    between atoms: _215  and  _218
REMARK   87  A    between atoms: _218  and  _219
REMARK   88  A    between atoms: _222  and  _224
REMARK   89  A    between atoms: _224  and  _225
REMARK   90  A    between atoms: _227  and  _229
REMARK   91  A    between atoms: _229  and  _230
REMARK   92  A    between atoms: _229  and  _232
REMARK   93  A    between atoms: _232  and  _233
REMARK   94  A    between atoms: _236  and  _238
REMARK   95  A    between atoms: _238  and  _239
REMARK   96  A    between atoms: _238  and  _241
REMARK   97  A    between atoms: _244  and  _246
REMARK   98  A    between atoms: _246  and  _247
REMARK   99  A    between atoms: _250  and  _252
REMARK  100  A    between atoms: _252  and  _253
REMARK  101  A    between atoms: _252  and  _255
REMARK  102  A    between atoms: _255  and  _256
REMARK  103  A    between atoms: _260  and  _261
REMARK  104  A    between atoms: _266  and  _268
REMARK  105  A    between atoms: _268  and  _269
REMARK  106  A    between atoms: _268  and  _271
REMARK  107  A    between atoms: _271  and  _272
REMARK  108  A    between atoms: _278  and  _280
REMARK  109  A    between atoms: _280  and  _281
REMARK  110  A    between atoms: _280  and  _283
REMARK  111  A    between atoms: _283  and  _284
REMARK  112  A    between atoms: _284  and  _285
REMARK  113  A    between atoms: _287  and  _289
REMARK  114  A    between atoms: _289  and  _290
REMARK  115  A    between atoms: _289  and  _292
REMARK  116  A    between atoms: _292  and  _293
REMARK  117  A    between atoms: _296  and  _298
REMARK  118  A    between atoms: _298  and  _299
REMARK  119  A    between atoms: _302  and  _304
REMARK  120  A    between atoms: _304  and  _305
REMARK  121  A    between atoms: _304  and  _307
REMARK  122  A    between atoms: _307  and  _308
REMARK  123  A    between atoms: _308  and  _309
REMARK  124  A    between atoms: _312  and  _314
REMARK  125  A    between atoms: _314  and  _315
REMARK  126  A    between atoms: _314  and  _317
REMARK  127  A    between atoms: _317  and  _318
REMARK  128  A    between atoms: _324  and  _326
REMARK  129  A    between atoms: _326  and  _327
REMARK  130  A    between atoms: _329  and  _331
REMARK  131  A    between atoms: _331  and  _332
REMARK  132  A    between atoms: _331  and  _334
REMARK  133  A    between atoms: _337  and  _339
REMARK  134  A    between atoms: _339  and  _340
REMARK  135  A    between atoms: _339  and  _342
REMARK  136  A    between atoms: _345  and  _347
REMARK  137  A    between atoms: _347  and  _348
REMARK  138  A    between atoms: _350  and  _352
REMARK  139  A    between atoms: _352  and  _353
REMARK  140  A    between atoms: _352  and  _355
REMARK  141  A    between atoms: _355  and  _356
REMARK  142  A    between atoms: _356  and  _357
REMARK  143  A    between atoms: _359  and  _361
REMARK  144  A    between atoms: _361  and  _362
REMARK  145  A    between atoms: _361  and  _364
REMARK  146  A    between atoms: _364  and  _365
REMARK  147  A    between atoms: _371  and  _373
REMARK  148  A    between atoms: _373  and  _374
REMARK  149  A    between atoms: _373  and  _376
REMARK  150  A    between atoms: _376  and  _377
REMARK  151  A    between atoms: _382  and  _383
REMARK  152  A    between atoms: _385  and  _387
REMARK  153  A    between atoms: _387  and  _388
REMARK  154  A    between atoms: _387  and  _390
REMARK  155  A    between atoms: _390  and  _391
REMARK  156  A    between atoms: _394  and  _396
REMARK  157  A    between atoms: _396  and  _397
REMARK  158  A    between atoms: _396  and  _399
REMARK  159  A    between atoms: _402  and  _404
REMARK  160  A    between atoms: _404  and  _405
REMARK  161  A    between atoms: _404  and  _407
REMARK  162  A    between atoms: _407  and  _408
REMARK  163  A    between atoms: _411  and  _413
REMARK  164  A    between atoms: _413  and  _414
REMARK  165  A    between atoms: _413  and  _416
REMARK  166  A    between atoms: _416  and  _417
REMARK  167  A    between atoms: _420  and  _422
REMARK  168  A    between atoms: _422  and  _423
REMARK  169  A    between atoms: _425  and  _427
REMARK  170  A    between atoms: _427  and  _428
REMARK  171  A    between atoms: _431  and  _433
REMARK  172  A    between atoms: _433  and  _434
REMARK  173  A    between atoms: _433  and  _436
REMARK  174  A    between atoms: _436  and  _437
REMARK  175  A    between atoms: _439  and  _441
REMARK  176  A    between atoms: _441  and  _442
REMARK  177  A    between atoms: _441  and  _444
REMARK  178  A    between atoms: _444  and  _445
REMARK  179  A    between atoms: _450  and  _451
REMARK  180  A    between atoms: _453  and  _455
REMARK  181  A    between atoms: _455  and  _456
REMARK  182  A    between atoms: _455  and  _458
REMARK  183  A    between atoms: _458  and  _459
REMARK  184  A    between atoms: _462  and  _464
REMARK  185  A    between atoms: _464  and  _465
REMARK  186  A    between atoms: _464  and  _467
REMARK  187  A    between atoms: _467  and  _468
REMARK  188  A    between atoms: _470  and  _472
REMARK  189  A    between atoms: _472  and  _473
REMARK  190  A    between atoms: _475  and  _477
REMARK  191  A    between atoms: _477  and  _478
REMARK  192  A    between atoms: _477  and  _480
REMARK  193  A    between atoms: _480  and  _481
REMARK  194  A    between atoms: _481  and  _482
REMARK  195  A    between atoms: _482  and  _483
REMARK  196  A    between atoms: _483  and  _484
REMARK  197  A    between atoms: _488  and  _490
REMARK  198  A    between atoms: _490  and  _491
REMARK  199  A    between atoms: _490  and  _493
REMARK  200  A    between atoms: _493  and  _494
REMARK  201  A    between atoms: _500  and  _502
REMARK  202  A    between atoms: _502  and  _503
REMARK  203  A    between atoms: _502  and  _505
REMARK  204  A    between atoms: _505  and  _506
REMARK  205  A    between atoms: _509  and  _511
REMARK  206  A    between atoms: _511  and  _512
REMARK  207  A    between atoms: _511  and  _514
REMARK  208  A    between atoms: _514  and  _515
REMARK  209  A    between atoms: _520  and  _521
REMARK  210  A    between atoms: _523  and  _525
REMARK  211  A    between atoms: _525  and  _526
REMARK  212  A    between atoms: _529  and  _531
REMARK  213  A    between atoms: _531  and  _532
REMARK  214  A    between atoms: _531  and  _534
REMARK  215  A    between atoms: _534  and  _535
REMARK  216  A    between atoms: _538  and  _540
REMARK  217  A    between atoms: _540  and  _541
REMARK  218  A    between atoms: _540  and  _543
REMARK  219  A    between atoms: _543  and  _544
REMARK  220  A    between atoms: _549  and  _551
REMARK  221  A    between atoms: _551  and  _552
REMARK  222  A    between atoms: _555  and  _557
REMARK  223  A    between atoms: _557  and  _558
REMARK  224  A    between atoms: _557  and  _560
REMARK  225  A    between atoms: _560  and  _561
REMARK  226  A    between atoms: _561  and  _562
REMARK  227  A    between atoms: _564  and  _566
REMARK  228  A    between atoms: _566  and  _567
REMARK  229  A    between atoms: _566  and  _569
REMARK  230  A    between atoms: _569  and  _570
REMARK  231  A    between atoms: _573  and  _575
REMARK  232  A    between atoms: _575  and  _576
REMARK  233  A    between atoms: _575  and  _578
REMARK  234  A    between atoms: _578  and  _579
REMARK  235  A    between atoms: _582  and  _584
REMARK  236  A    between atoms: _584  and  _585
REMARK  237  A    between atoms: _588  and  _590
REMARK  238  A    between atoms: _590  and  _591
REMARK  239  A    between atoms: _590  and  _593
REMARK  240  A    between atoms: _593  and  _594
REMARK  241  A    between atoms: _597  and  _599
REMARK  242  A    between atoms: _599  and  _600
REMARK  243  A    between atoms: _602  and  _604
REMARK  244  A    between atoms: _604  and  _605
REMARK  245  A    between atoms: _608  and  _610
REMARK  246  A    between atoms: _610  and  _611
REMARK  247  A    between atoms: _610  and  _613
REMARK  248  A    between atoms: _613  and  _614
REMARK  249  A    between atoms: _617  and  _619
REMARK  250  A    between atoms: _619  and  _620
REMARK  251  A    between atoms: _619  and  _622
REMARK  252  A    between atoms: _622  and  _623
REMARK  253  A    between atoms: _626  and  _628
REMARK  254  A    between atoms: _628  and  _629
REMARK  255  A    between atoms: _628  and  _631
REMARK  256  A    between atoms: _631  and  _632
REMARK  257  A    between atoms: _632  and  _633
REMARK  258  A    between atoms: _633  and  _634
REMARK  259  A    between atoms: _643  and  _645
REMARK  260  A    between atoms: _645  and  _646
REMARK  261  A    between atoms: _645  and  _648
REMARK  262  A    between atoms: _648  and  _649
REMARK  263  A    between atoms: _649  and  _650
REMARK  264  A    between atoms: _650  and  _651
REMARK  265  A    between atoms: _651  and  _652
REMARK  266  A    between atoms: _656  and  _658
REMARK  267  A    between atoms: _658  and  _659
REMARK  268  A    between atoms: _658  and  _661
REMARK  269  A    between atoms: _661  and  _662
REMARK  270  A    between atoms: _667  and  _669
REMARK  271  A    between atoms: _669  and  _670
REMARK  272  A    between atoms: _669  and  _672
REMARK  273  A    between atoms: _672  and  _673
REMARK  274  A    between atoms: _673  and  _674
REMARK  275  A    between atoms: _677  and  _679
REMARK  276  A    between atoms: _679  and  _680
REMARK  277  A    between atoms: _679  and  _682
REMARK  278  A    between atoms: _682  and  _683
REMARK  279  A    between atoms: _686  and  _688
REMARK  280  A    between atoms: _688  and  _689
REMARK  281  A    between atoms: _688  and  _691
REMARK  282  A    between atoms: _691  and  _692
REMARK                            x       y       z     vdW  Elec       q    Type
REMARK                         _______ _______ _______ _____ _____    ______ ____
ROOT
ATOM      1  O   HOH     1     -51.115 -10.542 -30.543  0.00  0.00    +0.000 OA
ENDROOT
TORSDOF 0
REMARK  Name = ../refined-set-2016/2il2/2il2_pocket.pdb
REMARK  282 active torsions:
REMARK  status: ('A' for Active; 'I' for Inactive)
REMARK    1  A    between atoms: _1  and  _3
REMARK    2  A    between atoms: _3  and  _4
REMARK    3  A    between atoms: _3  and  _6
REMARK    4  A    between atoms: _6  and  _7
REMARK    5  A    between atoms: _10  and  _12
REMARK    6  A    between atoms: _12  and  _13
REMARK    7  A    between atoms: _12  and  _15
REMARK    8  A    between atoms: _15  and  _16
REMARK    9  A    between atoms: _19  and  _21
REMARK   10  A    between atoms: _21  and  _22
REMARK   11  A    between atoms: _21  and  _24
REMARK   12  A    between atoms: _24  and  _25
REMARK   13  A    between atoms: _30  and  _31
REMARK   14  A    between atoms: _33  and  _35
REMARK   15  A    between atoms: _35  and  _36
REMARK   16  A    between atoms: _35  and  _38
REMARK   17  A    between atoms: _38  and  _39
REMARK   18  A    between atoms: _42  and  _44
REMARK   19  A    between atoms: _44  and  _45
REMARK   20  A    between atoms: _44  and  _47
REMARK   21  A    between atoms: _47  and  _48
REMARK   22  A    between atoms: _51  and  _53
REMARK   23  A    between atoms: _53  and  _54
REMARK   24  A    between atoms: _53  and  _56
REMARK   25  A    between atoms: _56  and  _57
REMARK   26  A    between atoms: _57  and  _58
REMARK   27  A    between atoms: _63  and  _65
REMARK   28  A    between atoms: _65  and  _66
REMARK   29  A    between atoms: _65  and  _68
REMARK   30  A    between atoms: _68  and  _69
REMARK   31  A    between atoms: _74  and  _75
REMARK   32  A    between atoms: _77  and  _79
REMARK   33  A    between atoms: _79  and  _80
REMARK   34  A    between atoms: _79  and  _82
REMARK   35  A    between atoms: _82  and  _83
REMARK   36  A    between atoms: _88  and  _89
REMARK   37  A    between atoms: _91  and  _93
REMARK   38  A    between atoms: _93  and  _94
REMARK   39  A    between atoms: _93  and  _96
REMARK   40  A    between atoms: _99  and  _101
REMARK   41  A    between atoms: _101  and  _102
REMARK   42  A    between atoms: _101  and  _104
REMARK   43  A    between atoms: _107  and  _109
REMARK   44  A    between atoms: _109  and  _110
REMARK   45  A    between atoms: _109  and  _112
REMARK   46  A    between atoms: _112  and  _113
REMARK   47  A    between atoms: _119  and  _121
REMARK   48  A    between atoms: _121  and  _122
REMARK   49  A    between atoms: _121  and  _124
REMARK   50  A    between atoms: _124  and  _125
REMARK   51  A    between atoms: _128  and  _130
REMARK   52  A    between atoms: _130  and  _131
REMARK   53  A    between atoms: _130  and  _133
REMARK   54  A    between atoms: _133  and  _134
REMARK   55  A    between atoms: _137  and  _139
REMARK   56  A    between atoms: _139  and  _140
REMARK   57  A    between atoms: _142  and  _144
REMARK   58  A    between atoms: _144  and  _145
REMARK   59  A    between atoms: _144  and  _147
REMARK   60  A    between atoms: _147  and  _148
REMARK   61  A    between atoms: _150  and  _152
REMARK   62  A    between atoms: _152  and  _153
REMARK   63  A    between atoms: _152  and  _155
REMARK   64  A    between atoms: _155  and  _156
REMARK   65  A    between atoms: _158  and  _160
REMARK   66  A    between atoms: _160  and  _161
REMARK   67  A    between atoms: _160  and  _163
REMARK   68  A    between atoms: _163  and  _164
REMARK   69  A    between atoms: _174  and  _176
REMARK   70  A    between atoms: _176  and  _177
REMARK   71  A    between atoms: _176  and  _179
REMARK   72  A    between atoms: _179  and  _180
REMARK   73  A    between atoms: _180  and  _181
REMARK   74  A    between atoms: _181  and  _182
REMARK   75  A    between atoms: _191  and  _193
REMARK   76  A    between atoms: _193  and  _194
REMARK   77  A    between atoms: _193  and  _196
REMARK   78  A    between atoms: _196  and  _197
REMARK   79  A    between atoms: _202  and  _203
REMARK   80  A    between atoms: _205  and  _207
REMARK   81  A    between atoms: _207  and  _208
REMARK   82  A    between atoms: _207  and  _210
REMARK   83  A    between atoms: _210  and  _211
REMARK   84  A    between atoms: _213  and  _215
REMARK   85  A    between atoms: _215  and  _216
REMARK   86  A    between atoms: _215  and  _218
REMARK   87  A    between atoms: _218  and  _219
REMARK   88  A    between atoms: _222  and  _224
REMARK   89  A    between atoms: _224  and  _225
REMARK   90  A    between atoms: _227  and  _229
REMARK   91  A    between atoms: _229  and  _230
REMARK   92  A    between atoms: _229  and  _232
REMARK   93  A    between atoms: _232  and  _233
REMARK   94  A    between atoms: _236  and  _238
REMARK   95  A    between atoms: _238  and  _239
REMARK   96  A    between atoms: _238  and  _241
REMARK   97  A    between atoms: _244  and  _246
REMARK   98  A    between atoms: _246  and  _247
REMARK   99  A    between atoms: _250  and  _252
REMARK  100  A    between atoms: _252  and  _253
REMARK  101  A    between atoms: _252  and  _255
REMARK  102  A    between atoms: _255  and  _256
REMARK  103  A    between atoms: _260  and  _261
REMARK  104  A    between atoms: _266  and  _268
REMARK  105  A    between atoms: _268  and  _269
REMARK  106  A    between atoms: _268  and  _271
REMARK  107  A    between atoms: _271  and  _272
REMARK  108  A    between atoms: _278  and  _280
REMARK  109  A    between atoms: _280  and  _281
REMARK  110  A    between atoms: _280  and  _283
REMARK  111  A    between atoms: _283  and  _284
REMARK  112  A    between atoms: _284  and  _285
REMARK  113  A    between atoms: _287  and  _289
REMARK  114  A    between atoms: _289  and  _290
REMARK  115  A    between atoms: _289  and  _292
REMARK  116  A    between atoms: _292  and  _293
REMARK  117  A    between atoms: _296  and  _298
REMARK  118  A    between atoms: _298  and  _299
REMARK  119  A    between atoms: _302  and  _304
REMARK  120  A    between atoms: _304  and  _305
REMARK  121  A    between atoms: _304  and  _307
REMARK  122  A    between atoms: _307  and  _308
REMARK  123  A    between atoms: _308  and  _309
REMARK  124  A    between atoms: _312  and  _314
REMARK  125  A    between atoms: _314  and  _315
REMARK  126  A    between atoms: _314  and  _317
REMARK  127  A    between atoms: _317  and  _318
REMARK  128  A    between atoms: _324  and  _326
REMARK  129  A    between atoms: _326  and  _327
REMARK  130  A    between atoms: _329  and  _331
REMARK  131  A    between atoms: _331  and  _332
REMARK  132  A    between atoms: _331  and  _334
REMARK  133  A    between atoms: _337  and  _339
REMARK  134  A    between atoms: _339  and  _340
REMARK  135  A    between atoms: _339  and  _342
REMARK  136  A    between atoms: _345  and  _347
REMARK  137  A    between atoms: _347  and  _348
REMARK  138  A    between atoms: _350  and  _352
REMARK  139  A    between atoms: _352  and  _353
REMARK  140  A    between atoms: _352  and  _355
REMARK  141  A    between atoms: _355  and  _356
REMARK  142  A    between atoms: _356  and  _357
REMARK  143  A    between atoms: _359  and  _361
REMARK  144  A    between atoms: _361  and  _362
REMARK  145  A    between atoms: _361  and  _364
REMARK  146  A    between atoms: _364  and  _365
REMARK  147  A    between atoms: _371  and  _373
REMARK  148  A    between atoms: _373  and  _374
REMARK  149  A    between atoms: _373  and  _376
REMARK  150  A    between atoms: _376  and  _377
REMARK  151  A    between atoms: _382  and  _383
REMARK  152  A    between atoms: _385  and  _387
REMARK  153  A    between atoms: _387  and  _388
REMARK  154  A    between atoms: _387  and  _390
REMARK  155  A    between atoms: _390  and  _391
REMARK  156  A    between atoms: _394  and  _396
REMARK  157  A    between atoms: _396  and  _397
REMARK  158  A    between atoms: _396  and  _399
REMARK  159  A    between atoms: _402  and  _404
REMARK  160  A    between atoms: _404  and  _405
REMARK  161  A    between atoms: _404  and  _407
REMARK  162  A    between atoms: _407  and  _408
REMARK  163  A    between atoms: _411  and  _413
REMARK  164  A    between atoms: _413  and  _414
REMARK  165  A    between atoms: _413  and  _416
REMARK  166  A    between atoms: _416  and  _417
REMARK  167  A    between atoms: _420  and  _422
REMARK  168  A    between atoms: _422  and  _423
REMARK  169  A    between atoms: _425  and  _427
REMARK  170  A    between atoms: _427  and  _428
REMARK  171  A    between atoms: _431  and  _433
REMARK  172  A    between atoms: _433  and  _434
REMARK  173  A    between atoms: _433  and  _436
REMARK  174  A    between atoms: _436  and  _437
REMARK  175  A    between atoms: _439  and  _441
REMARK  176  A    between atoms: _441  and  _442
REMARK  177  A    between atoms: _441  and  _444
REMARK  178  A    between atoms: _444  and  _445
REMARK  179  A    between atoms: _450  and  _451
REMARK  180  A    between atoms: _453  and  _455
REMARK  181  A    between atoms: _455  and  _456
REMARK  182  A    between atoms: _455  and  _458
REMARK  183  A    between atoms: _458  and  _459
REMARK  184  A    between atoms: _462  and  _464
REMARK  185  A    between atoms: _464  and  _465
REMARK  186  A    between atoms: _464  and  _467
REMARK  187  A    between atoms: _467  and  _468
REMARK  188  A    between atoms: _470  and  _472
REMARK  189  A    between atoms: _472  and  _473
REMARK  190  A    between atoms: _475  and  _477
REMARK  191  A    between atoms: _477  and  _478
REMARK  192  A    between atoms: _477  and  _480
REMARK  193  A    between atoms: _480  and  _481
REMARK  194  A    between atoms: _481  and  _482
REMARK  195  A    between atoms: _482  and  _483
REMARK  196  A    between atoms: _483  and  _484
REMARK  197  A    between atoms: _488  and  _490
REMARK  198  A    between atoms: _490  and  _491
REMARK  199  A    between atoms: _490  and  _493
REMARK  200  A    between atoms: _493  and  _494
REMARK  201  A    between atoms: _500  and  _502
REMARK  202  A    between atoms: _502  and  _503
REMARK  203  A    between atoms: _502  and  _505
REMARK  204  A    between atoms: _505  and  _506
REMARK  205  A    between atoms: _509  and  _511
REMARK  206  A    between atoms: _511  and  _512
REMARK  207  A    between atoms: _511  and  _514
REMARK  208  A    between atoms: _514  and  _515
REMARK  209  A    between atoms: _520  and  _521
REMARK  210  A    between atoms: _523  and  _525
REMARK  211  A    between atoms: _525  and  _526
REMARK  212  A    between atoms: _529  and  _531
REMARK  213  A    between atoms: _531  and  _532
REMARK  214  A    between atoms: _531  and  _534
REMARK  215  A    between atoms: _534  and  _535
REMARK  216  A    between atoms: _538  and  _540
REMARK  217  A    between atoms: _540  and  _541
REMARK  218  A    between atoms: _540  and  _543
REMARK  219  A    between atoms: _543  and  _544
REMARK  220  A    between atoms: _549  and  _551
REMARK  221  A    between atoms: _551  and  _552
REMARK  222  A    between atoms: _555  and  _557
REMARK  223  A    between atoms: _557  and  _558
REMARK  224  A    between atoms: _557  and  _560
REMARK  225  A    between atoms: _560  and  _561
REMARK  226  A    between atoms: _561  and  _562
REMARK  227  A    between atoms: _564  and  _566
REMARK  228  A    between atoms: _566  and  _567
REMARK  229  A    between atoms: _566  and  _569
REMARK  230  A    between atoms: _569  and  _570
REMARK  231  A    between atoms: _573  and  _575
REMARK  232  A    between atoms: _575  and  _576
REMARK  233  A    between atoms: _575  and  _578
REMARK  234  A    between atoms: _578  and  _579
REMARK  235  A    between atoms: _582  and  _584
REMARK  236  A    between atoms: _584  and  _585
REMARK  237  A    between atoms: _588  and  _590
REMARK  238  A    between atoms: _590  and  _591
REMARK  239  A    between atoms: _590  and  _593
REMARK  240  A    between atoms: _593  and  _594
REMARK  241  A    between atoms: _597  and  _599
REMARK  242  A    between atoms: _599  and  _600
REMARK  243  A    between atoms: _602  and  _604
REMARK  244  A    between atoms: _604  and  _605
REMARK  245  A    between atoms: _608  and  _610
REMARK  246  A    between atoms: _610  and  _611
REMARK  247  A    between atoms: _610  and  _613
REMARK  248  A    between atoms: _613  and  _614
REMARK  249  A    between atoms: _617  and  _619
REMARK  250  A    between atoms: _619  and  _620
REMARK  251  A    between atoms: _619  and  _622
REMARK  252  A    between atoms: _622  and  _623
REMARK  253  A    between atoms: _626  and  _628
REMARK  254  A    between atoms: _628  and  _629
REMARK  255  A    between atoms: _628  and  _631
REMARK  256  A    between atoms: _631  and  _632
REMARK  257  A    between atoms: _632  and  _633
REMARK  258  A    between atoms: _633  and  _634
REMARK  259  A    between atoms: _643  and  _645
REMARK  260  A    between atoms: _645  and  _646
REMARK  261  A    between atoms: _645  and  _648
REMARK  262  A    between atoms: _648  and  _649
REMARK  263  A    between atoms: _649  and  _650
REMARK  264  A    between atoms: _650  and  _651
REMARK  265  A    between atoms: _651  and  _652
REMARK  266  A    between atoms: _656  and  _658
REMARK  267  A    between atoms: _658  and  _659
REMARK  268  A    between atoms: _658  and  _661
REMARK  269  A    between atoms: _661  and  _662
REMARK  270  A    between atoms: _667  and  _669
REMARK  271  A    between atoms: _669  and  _670
REMARK  272  A    between atoms: _669  and  _672
REMARK  273  A    between atoms: _672  and  _673
REMARK  274  A    between atoms: _673  and  _674
REMARK  275  A    between atoms: _677  and  _679
REMARK  276  A    between atoms: _679  and  _680
REMARK  277  A    between atoms: _679  and  _682
REMARK  278  A    between atoms: _682  and  _683
REMARK  279  A    between atoms: _686  and  _688
REMARK  280  A    between atoms: _688  and  _689
REMARK  281  A    between atoms: _688  and  _691
REMARK  282  A    between atoms: _691  and  _692
REMARK                            x       y       z     vdW  Elec       q    Type
REMARK                         _______ _______ _______ _____ _____    ______ ____
ROOT
ATOM      1  O   HOH     1     -47.478 -22.182 -30.319  0.00  0.00    +0.000 OA
ENDROOT
TORSDOF 0
REMARK  Name = ../refined-set-2016/2il2/2il2_pocket.pdb
REMARK  282 active torsions:
REMARK  status: ('A' for Active; 'I' for Inactive)
REMARK    1  A    between atoms: _1  and  _3
REMARK    2  A    between atoms: _3  and  _4
REMARK    3  A    between atoms: _3  and  _6
REMARK    4  A    between atoms: _6  and  _7
REMARK    5  A    between atoms: _10  and  _12
REMARK    6  A    between atoms: _12  and  _13
REMARK    7  A    between atoms: _12  and  _15
REMARK    8  A    between atoms: _15  and  _16
REMARK    9  A    between atoms: _19  and  _21
REMARK   10  A    between atoms: _21  and  _22
REMARK   11  A    between atoms: _21  and  _24
REMARK   12  A    between atoms: _24  and  _25
REMARK   13  A    between atoms: _30  and  _31
REMARK   14  A    between atoms: _33  and  _35
REMARK   15  A    between atoms: _35  and  _36
REMARK   16  A    between atoms: _35  and  _38
REMARK   17  A    between atoms: _38  and  _39
REMARK   18  A    between atoms: _42  and  _44
REMARK   19  A    between atoms: _44  and  _45
REMARK   20  A    between atoms: _44  and  _47
REMARK   21  A    between atoms: _47  and  _48
REMARK   22  A    between atoms: _51  and  _53
REMARK   23  A    between atoms: _53  and  _54
REMARK   24  A    between atoms: _53  and  _56
REMARK   25  A    between atoms: _56  and  _57
REMARK   26  A    between atoms: _57  and  _58
REMARK   27  A    between atoms: _63  and  _65
REMARK   28  A    between atoms: _65  and  _66
REMARK   29  A    between atoms: _65  and  _68
REMARK   30  A    between atoms: _68  and  _69
REMARK   31  A    between atoms: _74  and  _75
REMARK   32  A    between atoms: _77  and  _79
REMARK   33  A    between atoms: _79  and  _80
REMARK   34  A    between atoms: _79  and  _82
REMARK   35  A    between atoms: _82  and  _83
REMARK   36  A    between atoms: _88  and  _89
REMARK   37  A    between atoms: _91  and  _93
REMARK   38  A    between atoms: _93  and  _94
REMARK   39  A    between atoms: _93  and  _96
REMARK   40  A    between atoms: _99  and  _101
REMARK   41  A    between atoms: _101  and  _102
REMARK   42  A    between atoms: _101  and  _104
REMARK   43  A    between atoms: _107  and  _109
REMARK   44  A    between atoms: _109  and  _110
REMARK   45  A    between atoms: _109  and  _112
REMARK   46  A    between atoms: _112  and  _113
REMARK   47  A    between atoms: _119  and  _121
REMARK   48  A    between atoms: _121  and  _122
REMARK   49  A    between atoms: _121  and  _124
REMARK   50  A    between atoms: _124  and  _125
REMARK   51  A    between atoms: _128  and  _130
REMARK   52  A    between atoms: _130  and  _131
REMARK   53  A    between atoms: _130  and  _133
REMARK   54  A    between atoms: _133  and  _134
REMARK   55  A    between atoms: _137  and  _139
REMARK   56  A    between atoms: _139  and  _140
REMARK   57  A    between atoms: _142  and  _144
REMARK   58  A    between atoms: _144  and  _145
REMARK   59  A    between atoms: _144  and  _147
REMARK   60  A    between atoms: _147  and  _148
REMARK   61  A    between atoms: _150  and  _152
REMARK   62  A    between atoms: _152  and  _153
REMARK   63  A    between atoms: _152  and  _155
REMARK   64  A    between atoms: _155  and  _156
REMARK   65  A    between atoms: _158  and  _160
REMARK   66  A    between atoms: _160  and  _161
REMARK   67  A    between atoms: _160  and  _163
REMARK   68  A    between atoms: _163  and  _164
REMARK   69  A    between atoms: _174  and  _176
REMARK   70  A    between atoms: _176  and  _177
REMARK   71  A    between atoms: _176  and  _179
REMARK   72  A    between atoms: _179  and  _180
REMARK   73  A    between atoms: _180  and  _181
REMARK   74  A    between atoms: _181  and  _182
REMARK   75  A    between atoms: _191  and  _193
REMARK   76  A    between atoms: _193  and  _194
REMARK   77  A    between atoms: _193  and  _196
REMARK   78  A    between atoms: _196  and  _197
REMARK   79  A    between atoms: _202  and  _203
REMARK   80  A    between atoms: _205  and  _207
REMARK   81  A    between atoms: _207  and  _208
REMARK   82  A    between atoms: _207  and  _210
REMARK   83  A    between atoms: _210  and  _211
REMARK   84  A    between atoms: _213  and  _215
REMARK   85  A    between atoms: _215  and  _216
REMARK   86  A    between atoms: _215  and  _218
REMARK   87  A    between atoms: _218  and  _219
REMARK   88  A    between atoms: _222  and  _224
REMARK   89  A    between atoms: _224  and  _225
REMARK   90  A    between atoms: _227  and  _229
REMARK   91  A    between atoms: _229  and  _230
REMARK   92  A    between atoms: _229  and  _232
REMARK   93  A    between atoms: _232  and  _233
REMARK   94  A    between atoms: _236  and  _238
REMARK   95  A    between atoms: _238  and  _239
REMARK   96  A    between atoms: _238  and  _241
REMARK   97  A    between atoms: _244  and  _246
REMARK   98  A    between atoms: _246  and  _247
REMARK   99  A    between atoms: _250  and  _252
REMARK  100  A    between atoms: _252  and  _253
REMARK  101  A    between atoms: _252  and  _255
REMARK  102  A    between atoms: _255  and  _256
REMARK  103  A    between atoms: _260  and  _261
REMARK  104  A    between atoms: _266  and  _268
REMARK  105  A    between atoms: _268  and  _269
REMARK  106  A    between atoms: _268  and  _271
REMARK  107  A    between atoms: _271  and  _272
REMARK  108  A    between atoms: _278  and  _280
REMARK  109  A    between atoms: _280  and  _281
REMARK  110  A    between atoms: _280  and  _283
REMARK  111  A    between atoms: _283  and  _284
REMARK  112  A    between atoms: _284  and  _285
REMARK  113  A    between atoms: _287  and  _289
REMARK  114  A    between atoms: _289  and  _290
REMARK  115  A    between atoms: _289  and  _292
REMARK  116  A    between atoms: _292  and  _293
REMARK  117  A    between atoms: _296  and  _298
REMARK  118  A    between atoms: _298  and  _299
REMARK  119  A    between atoms: _302  and  _304
REMARK  120  A    between atoms: _304  and  _305
REMARK  121  A    between atoms: _304  and  _307
REMARK  122  A    between atoms: _307  and  _308
REMARK  123  A    between atoms: _308  and  _309
REMARK  124  A    between atoms: _312  and  _314
REMARK  125  A    between atoms: _314  and  _315
REMARK  126  A    between atoms: _314  and  _317
REMARK  127  A    between atoms: _317  and  _318
REMARK  128  A    between atoms: _324  and  _326
REMARK  129  A    between atoms: _326  and  _327
REMARK  130  A    between atoms: _329  and  _331
REMARK  131  A    between atoms: _331  and  _332
REMARK  132  A    between atoms: _331  and  _334
REMARK  133  A    between atoms: _337  and  _339
REMARK  134  A    between atoms: _339  and  _340
REMARK  135  A    between atoms: _339  and  _342
REMARK  136  A    between atoms: _345  and  _347
REMARK  137  A    between atoms: _347  and  _348
REMARK  138  A    between atoms: _350  and  _352
REMARK  139  A    between atoms: _352  and  _353
REMARK  140  A    between atoms: _352  and  _355
REMARK  141  A    between atoms: _355  and  _356
REMARK  142  A    between atoms: _356  and  _357
REMARK  143  A    between atoms: _359  and  _361
REMARK  144  A    between atoms: _361  and  _362
REMARK  145  A    between atoms: _361  and  _364
REMARK  146  A    between atoms: _364  and  _365
REMARK  147  A    between atoms: _371  and  _373
REMARK  148  A    between atoms: _373  and  _374
REMARK  149  A    between atoms: _373  and  _376
REMARK  150  A    between atoms: _376  and  _377
REMARK  151  A    between atoms: _382  and  _383
REMARK  152  A    between atoms: _385  and  _387
REMARK  153  A    between atoms: _387  and  _388
REMARK  154  A    between atoms: _387  and  _390
REMARK  155  A    between atoms: _390  and  _391
REMARK  156  A    between atoms: _394  and  _396
REMARK  157  A    between atoms: _396  and  _397
REMARK  158  A    between atoms: _396  and  _399
REMARK  159  A    between atoms: _402  and  _404
REMARK  160  A    between atoms: _404  and  _405
REMARK  161  A    between atoms: _404  and  _407
REMARK  162  A    between atoms: _407  and  _408
REMARK  163  A    between atoms: _411  and  _413
REMARK  164  A    between atoms: _413  and  _414
REMARK  165  A    between atoms: _413  and  _416
REMARK  166  A    between atoms: _416  and  _417
REMARK  167  A    between atoms: _420  and  _422
REMARK  168  A    between atoms: _422  and  _423
REMARK  169  A    between atoms: _425  and  _427
REMARK  170  A    between atoms: _427  and  _428
REMARK  171  A    between atoms: _431  and  _433
REMARK  172  A    between atoms: _433  and  _434
REMARK  173  A    between atoms: _433  and  _436
REMARK  174  A    between atoms: _436  and  _437
REMARK  175  A    between atoms: _439  and  _441
REMARK  176  A    between atoms: _441  and  _442
REMARK  177  A    between atoms: _441  and  _444
REMARK  178  A    between atoms: _444  and  _445
REMARK  179  A    between atoms: _450  and  _451
REMARK  180  A    between atoms: _453  and  _455
REMARK  181  A    between atoms: _455  and  _456
REMARK  182  A    between atoms: _455  and  _458
REMARK  183  A    between atoms: _458  and  _459
REMARK  184  A    between atoms: _462  and  _464
REMARK  185  A    between atoms: _464  and  _465
REMARK  186  A    between atoms: _464  and  _467
REMARK  187  A    between atoms: _467  and  _468
REMARK  188  A    between atoms: _470  and  _472
REMARK  189  A    between atoms: _472  and  _473
REMARK  190  A    between atoms: _475  and  _477
REMARK  191  A    between atoms: _477  and  _478
REMARK  192  A    between atoms: _477  and  _480
REMARK  193  A    between atoms: _480  and  _481
REMARK  194  A    between atoms: _481  and  _482
REMARK  195  A    between atoms: _482  and  _483
REMARK  196  A    between atoms: _483  and  _484
REMARK  197  A    between atoms: _488  and  _490
REMARK  198  A    between atoms: _490  and  _491
REMARK  199  A    between atoms: _490  and  _493
REMARK  200  A    between atoms: _493  and  _494
REMARK  201  A    between atoms: _500  and  _502
REMARK  202  A    between atoms: _502  and  _503
REMARK  203  A    between atoms: _502  and  _505
REMARK  204  A    between atoms: _505  and  _506
REMARK  205  A    between atoms: _509  and  _511
REMARK  206  A    between atoms: _511  and  _512
REMARK  207  A    between atoms: _511  and  _514
REMARK  208  A    between atoms: _514  and  _515
REMARK  209  A    between atoms: _520  and  _521
REMARK  210  A    between atoms: _523  and  _525
REMARK  211  A    between atoms: _525  and  _526
REMARK  212  A    between atoms: _529  and  _531
REMARK  213  A    between atoms: _531  and  _532
REMARK  214  A    between atoms: _531  and  _534
REMARK  215  A    between atoms: _534  and  _535
REMARK  216  A    between atoms: _538  and  _540
REMARK  217  A    between atoms: _540  and  _541
REMARK  218  A    between atoms: _540  and  _543
REMARK  219  A    between atoms: _543  and  _544
REMARK  220  A    between atoms: _549  and  _551
REMARK  221  A    between atoms: _551  and  _552
REMARK  222  A    between atoms: _555  and  _557
REMARK  223  A    between atoms: _557  and  _558
REMARK  224  A    between atoms: _557  and  _560
REMARK  225  A    between atoms: _560  and  _561
REMARK  226  A    between atoms: _561  and  _562
REMARK  227  A    between atoms: _564  and  _566
REMARK  228  A    between atoms: _566  and  _567
REMARK  229  A    between atoms: _566  and  _569
REMARK  230  A    between atoms: _569  and  _570
REMARK  231  A    between atoms: _573  and  _575
REMARK  232  A    between atoms: _575  and  _576
REMARK  233  A    between atoms: _575  and  _578
REMARK  234  A    between atoms: _578  and  _579
REMARK  235  A    between atoms: _582  and  _584
REMARK  236  A    between atoms: _584  and  _585
REMARK  237  A    between atoms: _588  and  _590
REMARK  238  A    between atoms: _590  and  _591
REMARK  239  A    between atoms: _590  and  _593
REMARK  240  A    between atoms: _593  and  _594
REMARK  241  A    between atoms: _597  and  _599
REMARK  242  A    between atoms: _599  and  _600
REMARK  243  A    between atoms: _602  and  _604
REMARK  244  A    between atoms: _604  and  _605
REMARK  245  A    between atoms: _608  and  _610
REMARK  246  A    between atoms: _610  and  _611
REMARK  247  A    between atoms: _610  and  _613
REMARK  248  A    between atoms: _613  and  _614
REMARK  249  A    between atoms: _617  and  _619
REMARK  250  A    between atoms: _619  and  _620
REMARK  251  A    between atoms: _619  and  _622
REMARK  252  A    between atoms: _622  and  _623
REMARK  253  A    between atoms: _626  and  _628
REMARK  254  A    between atoms: _628  and  _629
REMARK  255  A    between atoms: _628  and  _631
REMARK  256  A    between atoms: _631  and  _632
REMARK  257  A    between atoms: _632  and  _633
REMARK  258  A    between atoms: _633  and  _634
REMARK  259  A    between atoms: _643  and  _645
REMARK  260  A    between atoms: _645  and  _646
REMARK  261  A    between atoms: _645  and  _648
REMARK  262  A    between atoms: _648  and  _649
REMARK  263  A    between atoms: _649  and  _650
REMARK  264  A    between atoms: _650  and  _651
REMARK  265  A    between atoms: _651  and  _652
REMARK  266  A    between atoms: _656  and  _658
REMARK  267  A    between atoms: _658  and  _659
REMARK  268  A    between atoms: _658  and  _661
REMARK  269  A    between atoms: _661  and  _662
REMARK  270  A    between atoms: _667  and  _669
REMARK  271  A    between atoms: _669  and  _670
REMARK  272  A    between atoms: _669  and  _672
REMARK  273  A    between atoms: _672  and  _673
REMARK  274  A    between atoms: _673  and  _674
REMARK  275  A    between atoms: _677  and  _679
REMARK  276  A    between atoms: _679  and  _680
REMARK  277  A    between atoms: _679  and  _682
REMARK  278  A    between atoms: _682  and  _683
REMARK  279  A    between atoms: _686  and  _688
REMARK  280  A    between atoms: _688  and  _689
REMARK  281  A    between atoms: _688  and  _691
REMARK  282  A    between atoms: _691  and  _692
REMARK                            x       y       z     vdW  Elec       q    Type
REMARK                         _______ _______ _______ _____ _____    ______ ____
ROOT
ATOM      1  O   HOH     1     -44.650 -18.728 -36.984  0.00  0.00    +0.000 OA
ENDROOT
TORSDOF 0
REMARK  Name = ../refined-set-2016/2il2/2il2_pocket.pdb
REMARK  282 active torsions:
REMARK  status: ('A' for Active; 'I' for Inactive)
REMARK    1  A    between atoms: _1  and  _3
REMARK    2  A    between atoms: _3  and  _4
REMARK    3  A    between atoms: _3  and  _6
REMARK    4  A    between atoms: _6  and  _7
REMARK    5  A    between atoms: _10  and  _12
REMARK    6  A    between atoms: _12  and  _13
REMARK    7  A    between atoms: _12  and  _15
REMARK    8  A    between atoms: _15  and  _16
REMARK    9  A    between atoms: _19  and  _21
REMARK   10  A    between atoms: _21  and  _22
REMARK   11  A    between atoms: _21  and  _24
REMARK   12  A    between atoms: _24  and  _25
REMARK   13  A    between atoms: _30  and  _31
REMARK   14  A    between atoms: _33  and  _35
REMARK   15  A    between atoms: _35  and  _36
REMARK   16  A    between atoms: _35  and  _38
REMARK   17  A    between atoms: _38  and  _39
REMARK   18  A    between atoms: _42  and  _44
REMARK   19  A    between atoms: _44  and  _45
REMARK   20  A    between atoms: _44  and  _47
REMARK   21  A    between atoms: _47  and  _48
REMARK   22  A    between atoms: _51  and  _53
REMARK   23  A    between atoms: _53  and  _54
REMARK   24  A    between atoms: _53  and  _56
REMARK   25  A    between atoms: _56  and  _57
REMARK   26  A    between atoms: _57  and  _58
REMARK   27  A    between atoms: _63  and  _65
REMARK   28  A    between atoms: _65  and  _66
REMARK   29  A    between atoms: _65  and  _68
REMARK   30  A    between atoms: _68  and  _69
REMARK   31  A    between atoms: _74  and  _75
REMARK   32  A    between atoms: _77  and  _79
REMARK   33  A    between atoms: _79  and  _80
REMARK   34  A    between atoms: _79  and  _82
REMARK   35  A    between atoms: _82  and  _83
REMARK   36  A    between atoms: _88  and  _89
REMARK   37  A    between atoms: _91  and  _93
REMARK   38  A    between atoms: _93  and  _94
REMARK   39  A    between atoms: _93  and  _96
REMARK   40  A    between atoms: _99  and  _101
REMARK   41  A    between atoms: _101  and  _102
REMARK   42  A    between atoms: _101  and  _104
REMARK   43  A    between atoms: _107  and  _109
REMARK   44  A    between atoms: _109  and  _110
REMARK   45  A    between atoms: _109  and  _112
REMARK   46  A    between atoms: _112  and  _113
REMARK   47  A    between atoms: _119  and  _121
REMARK   48  A    between atoms: _121  and  _122
REMARK   49  A    between atoms: _121  and  _124
REMARK   50  A    between atoms: _124  and  _125
REMARK   51  A    between atoms: _128  and  _130
REMARK   52  A    between atoms: _130  and  _131
REMARK   53  A    between atoms: _130  and  _133
REMARK   54  A    between atoms: _133  and  _134
REMARK   55  A    between atoms: _137  and  _139
REMARK   56  A    between atoms: _139  and  _140
REMARK   57  A    between atoms: _142  and  _144
REMARK   58  A    between atoms: _144  and  _145
REMARK   59  A    between atoms: _144  and  _147
REMARK   60  A    between atoms: _147  and  _148
REMARK   61  A    between atoms: _150  and  _152
REMARK   62  A    between atoms: _152  and  _153
REMARK   63  A    between atoms: _152  and  _155
REMARK   64  A    between atoms: _155  and  _156
REMARK   65  A    between atoms: _158  and  _160
REMARK   66  A    between atoms: _160  and  _161
REMARK   67  A    between atoms: _160  and  _163
REMARK   68  A    between atoms: _163  and  _164
REMARK   69  A    between atoms: _174  and  _176
REMARK   70  A    between atoms: _176  and  _177
REMARK   71  A    between atoms: _176  and  _179
REMARK   72  A    between atoms: _179  and  _180
REMARK   73  A    between atoms: _180  and  _181
REMARK   74  A    between atoms: _181  and  _182
REMARK   75  A    between atoms: _191  and  _193
REMARK   76  A    between atoms: _193  and  _194
REMARK   77  A    between atoms: _193  and  _196
REMARK   78  A    between atoms: _196  and  _197
REMARK   79  A    between atoms: _202  and  _203
REMARK   80  A    between atoms: _205  and  _207
REMARK   81  A    between atoms: _207  and  _208
REMARK   82  A    between atoms: _207  and  _210
REMARK   83  A    between atoms: _210  and  _211
REMARK   84  A    between atoms: _213  and  _215
REMARK   85  A    between atoms: _215  and  _216
REMARK   86  A    between atoms: _215  and  _218
REMARK   87  A    between atoms: _218  and  _219
REMARK   88  A    between atoms: _222  and  _224
REMARK   89  A    between atoms: _224  and  _225
REMARK   90  A    between atoms: _227  and  _229
REMARK   91  A    between atoms: _229  and  _230
REMARK   92  A    between atoms: _229  and  _232
REMARK   93  A    between atoms: _232  and  _233
REMARK   94  A    between atoms: _236  and  _238
REMARK   95  A    between atoms: _238  and  _239
REMARK   96  A    between atoms: _238  and  _241
REMARK   97  A    between atoms: _244  and  _246
REMARK   98  A    between atoms: _246  and  _247
REMARK   99  A    between atoms: _250  and  _252
REMARK  100  A    between atoms: _252  and  _253
REMARK  101  A    between atoms: _252  and  _255
REMARK  102  A    between atoms: _255  and  _256
REMARK  103  A    between atoms: _260  and  _261
REMARK  104  A    between atoms: _266  and  _268
REMARK  105  A    between atoms: _268  and  _269
REMARK  106  A    between atoms: _268  and  _271
REMARK  107  A    between atoms: _271  and  _272
REMARK  108  A    between atoms: _278  and  _280
REMARK  109  A    between atoms: _280  and  _281
REMARK  110  A    between atoms: _280  and  _283
REMARK  111  A    between atoms: _283  and  _284
REMARK  112  A    between atoms: _284  and  _285
REMARK  113  A    between atoms: _287  and  _289
REMARK  114  A    between atoms: _289  and  _290
REMARK  115  A    between atoms: _289  and  _292
REMARK  116  A    between atoms: _292  and  _293
REMARK  117  A    between atoms: _296  and  _298
REMARK  118  A    between atoms: _298  and  _299
REMARK  119  A    between atoms: _302  and  _304
REMARK  120  A    between atoms: _304  and  _305
REMARK  121  A    between atoms: _304  and  _307
REMARK  122  A    between atoms: _307  and  _308
REMARK  123  A    between atoms: _308  and  _309
REMARK  124  A    between atoms: _312  and  _314
REMARK  125  A    between atoms: _314  and  _315
REMARK  126  A    between atoms: _314  and  _317
REMARK  127  A    between atoms: _317  and  _318
REMARK  128  A    between atoms: _324  and  _326
REMARK  129  A    between atoms: _326  and  _327
REMARK  130  A    between atoms: _329  and  _331
REMARK  131  A    between atoms: _331  and  _332
REMARK  132  A    between atoms: _331  and  _334
REMARK  133  A    between atoms: _337  and  _339
REMARK  134  A    between atoms: _339  and  _340
REMARK  135  A    between atoms: _339  and  _342
REMARK  136  A    between atoms: _345  and  _347
REMARK  137  A    between atoms: _347  and  _348
REMARK  138  A    between atoms: _350  and  _352
REMARK  139  A    between atoms: _352  and  _353
REMARK  140  A    between atoms: _352  and  _355
REMARK  141  A    between atoms: _355  and  _356
REMARK  142  A    between atoms: _356  and  _357
REMARK  143  A    between atoms: _359  and  _361
REMARK  144  A    between atoms: _361  and  _362
REMARK  145  A    between atoms: _361  and  _364
REMARK  146  A    between atoms: _364  and  _365
REMARK  147  A    between atoms: _371  and  _373
REMARK  148  A    between atoms: _373  and  _374
REMARK  149  A    between atoms: _373  and  _376
REMARK  150  A    between atoms: _376  and  _377
REMARK  151  A    between atoms: _382  and  _383
REMARK  152  A    between atoms: _385  and  _387
REMARK  153  A    between atoms: _387  and  _388
REMARK  154  A    between atoms: _387  and  _390
REMARK  155  A    between atoms: _390  and  _391
REMARK  156  A    between atoms: _394  and  _396
REMARK  157  A    between atoms: _396  and  _397
REMARK  158  A    between atoms: _396  and  _399
REMARK  159  A    between atoms: _402  and  _404
REMARK  160  A    between atoms: _404  and  _405
REMARK  161  A    between atoms: _404  and  _407
REMARK  162  A    between atoms: _407  and  _408
REMARK  163  A    between atoms: _411  and  _413
REMARK  164  A    between atoms: _413  and  _414
REMARK  165  A    between atoms: _413  and  _416
REMARK  166  A    between atoms: _416  and  _417
REMARK  167  A    between atoms: _420  and  _422
REMARK  168  A    between atoms: _422  and  _423
REMARK  169  A    between atoms: _425  and  _427
REMARK  170  A    between atoms: _427  and  _428
REMARK  171  A    between atoms: _431  and  _433
REMARK  172  A    between atoms: _433  and  _434
REMARK  173  A    between atoms: _433  and  _436
REMARK  174  A    between atoms: _436  and  _437
REMARK  175  A    between atoms: _439  and  _441
REMARK  176  A    between atoms: _441  and  _442
REMARK  177  A    between atoms: _441  and  _444
REMARK  178  A    between atoms: _444  and  _445
REMARK  179  A    between atoms: _450  and  _451
REMARK  180  A    between atoms: _453  and  _455
REMARK  181  A    between atoms: _455  and  _456
REMARK  182  A    between atoms: _455  and  _458
REMARK  183  A    between atoms: _458  and  _459
REMARK  184  A    between atoms: _462  and  _464
REMARK  185  A    between atoms: _464  and  _465
REMARK  186  A    between atoms: _464  and  _467
REMARK  187  A    between atoms: _467  and  _468
REMARK  188  A    between atoms: _470  and  _472
REMARK  189  A    between atoms: _472  and  _473
REMARK  190  A    between atoms: _475  and  _477
REMARK  191  A    between atoms: _477  and  _478
REMARK  192  A    between atoms: _477  and  _480
REMARK  193  A    between atoms: _480  and  _481
REMARK  194  A    between atoms: _481  and  _482
REMARK  195  A    between atoms: _482  and  _483
REMARK  196  A    between atoms: _483  and  _484
REMARK  197  A    between atoms: _488  and  _490
REMARK  198  A    between atoms: _490  and  _491
REMARK  199  A    between atoms: _490  and  _493
REMARK  200  A    between atoms: _493  and  _494
REMARK  201  A    between atoms: _500  and  _502
REMARK  202  A    between atoms: _502  and  _503
REMARK  203  A    between atoms: _502  and  _505
REMARK  204  A    between atoms: _505  and  _506
REMARK  205  A    between atoms: _509  and  _511
REMARK  206  A    between atoms: _511  and  _512
REMARK  207  A    between atoms: _511  and  _514
REMARK  208  A    between atoms: _514  and  _515
REMARK  209  A    between atoms: _520  and  _521
REMARK  210  A    between atoms: _523  and  _525
REMARK  211  A    between atoms: _525  and  _526
REMARK  212  A    between atoms: _529  and  _531
REMARK  213  A    between atoms: _531  and  _532
REMARK  214  A    between atoms: _531  and  _534
REMARK  215  A    between atoms: _534  and  _535
REMARK  216  A    between atoms: _538  and  _540
REMARK  217  A    between atoms: _540  and  _541
REMARK  218  A    between atoms: _540  and  _543
REMARK  219  A    between atoms: _543  and  _544
REMARK  220  A    between atoms: _549  and  _551
REMARK  221  A    between atoms: _551  and  _552
REMARK  222  A    between atoms: _555  and  _557
REMARK  223  A    between atoms: _557  and  _558
REMARK  224  A    between atoms: _557  and  _560
REMARK  225  A    between atoms: _560  and  _561
REMARK  226  A    between atoms: _561  and  _562
REMARK  227  A    between atoms: _564  and  _566
REMARK  228  A    between atoms: _566  and  _567
REMARK  229  A    between atoms: _566  and  _569
REMARK  230  A    between atoms: _569  and  _570
REMARK  231  A    between atoms: _573  and  _575
REMARK  232  A    between atoms: _575  and  _576
REMARK  233  A    between atoms: _575  and  _578
REMARK  234  A    between atoms: _578  and  _579
REMARK  235  A    between atoms: _582  and  _584
REMARK  236  A    between atoms: _584  and  _585
REMARK  237  A    between atoms: _588  and  _590
REMARK  238  A    between atoms: _590  and  _591
REMARK  239  A    between atoms: _590  and  _593
REMARK  240  A    between atoms: _593  and  _594
REMARK  241  A    between atoms: _597  and  _599
REMARK  242  A    between atoms: _599  and  _600
REMARK  243  A    between atoms: _602  and  _604
REMARK  244  A    between atoms: _604  and  _605
REMARK  245  A    between atoms: _608  and  _610
REMARK  246  A    between atoms: _610  and  _611
REMARK  247  A    between atoms: _610  and  _613
REMARK  248  A    between atoms: _613  and  _614
REMARK  249  A    between atoms: _617  and  _619
REMARK  250  A    between atoms: _619  and  _620
REMARK  251  A    between atoms: _619  and  _622
REMARK  252  A    between atoms: _622  and  _623
REMARK  253  A    between atoms: _626  and  _628
REMARK  254  A    between atoms: _628  and  _629
REMARK  255  A    between atoms: _628  and  _631
REMARK  256  A    between atoms: _631  and  _632
REMARK  257  A    between atoms: _632  and  _633
REMARK  258  A    between atoms: _633  and  _634
REMARK  259  A    between atoms: _643  and  _645
REMARK  260  A    between atoms: _645  and  _646
REMARK  261  A    between atoms: _645  and  _648
REMARK  262  A    between atoms: _648  and  _649
REMARK  263  A    between atoms: _649  and  _650
REMARK  264  A    between atoms: _650  and  _651
REMARK  265  A    between atoms: _651  and  _652
REMARK  266  A    between atoms: _656  and  _658
REMARK  267  A    between atoms: _658  and  _659
REMARK  268  A    between atoms: _658  and  _661
REMARK  269  A    between atoms: _661  and  _662
REMARK  270  A    between atoms: _667  and  _669
REMARK  271  A    between atoms: _669  and  _670
REMARK  272  A    between atoms: _669  and  _672
REMARK  273  A    between atoms: _672  and  _673
REMARK  274  A    between atoms: _673  and  _674
REMARK  275  A    between atoms: _677  and  _679
REMARK  276  A    between atoms: _679  and  _680
REMARK  277  A    between atoms: _679  and  _682
REMARK  278  A    between atoms: _682  and  _683
REMARK  279  A    between atoms: _686  and  _688
REMARK  280  A    between atoms: _688  and  _689
REMARK  281  A    between atoms: _688  and  _691
REMARK  282  A    between atoms: _691  and  _692
REMARK                            x       y       z     vdW  Elec       q    Type
REMARK                         _______ _______ _______ _____ _____    ______ ____
ROOT
ATOM      1  O   HOH     1     -55.065 -20.374 -39.979  0.00  0.00    +0.000 OA
ENDROOT
TORSDOF 0
REMARK  Name = ../refined-set-2016/2il2/2il2_pocket.pdb
REMARK  282 active torsions:
REMARK  status: ('A' for Active; 'I' for Inactive)
REMARK    1  A    between atoms: _1  and  _3
REMARK    2  A    between atoms: _3  and  _4
REMARK    3  A    between atoms: _3  and  _6
REMARK    4  A    between atoms: _6  and  _7
REMARK    5  A    between atoms: _10  and  _12
REMARK    6  A    between atoms: _12  and  _13
REMARK    7  A    between atoms: _12  and  _15
REMARK    8  A    between atoms: _15  and  _16
REMARK    9  A    between atoms: _19  and  _21
REMARK   10  A    between atoms: _21  and  _22
REMARK   11  A    between atoms: _21  and  _24
REMARK   12  A    between atoms: _24  and  _25
REMARK   13  A    between atoms: _30  and  _31
REMARK   14  A    between atoms: _33  and  _35
REMARK   15  A    between atoms: _35  and  _36
REMARK   16  A    between atoms: _35  and  _38
REMARK   17  A    between atoms: _38  and  _39
REMARK   18  A    between atoms: _42  and  _44
REMARK   19  A    between atoms: _44  and  _45
REMARK   20  A    between atoms: _44  and  _47
REMARK   21  A    between atoms: _47  and  _48
REMARK   22  A    between atoms: _51  and  _53
REMARK   23  A    between atoms: _53  and  _54
REMARK   24  A    between atoms: _53  and  _56
REMARK   25  A    between atoms: _56  and  _57
REMARK   26  A    between atoms: _57  and  _58
REMARK   27  A    between atoms: _63  and  _65
REMARK   28  A    between atoms: _65  and  _66
REMARK   29  A    between atoms: _65  and  _68
REMARK   30  A    between atoms: _68  and  _69
REMARK   31  A    between atoms: _74  and  _75
REMARK   32  A    between atoms: _77  and  _79
REMARK   33  A    between atoms: _79  and  _80
REMARK   34  A    between atoms: _79  and  _82
REMARK   35  A    between atoms: _82  and  _83
REMARK   36  A    between atoms: _88  and  _89
REMARK   37  A    between atoms: _91  and  _93
REMARK   38  A    between atoms: _93  and  _94
REMARK   39  A    between atoms: _93  and  _96
REMARK   40  A    between atoms: _99  and  _101
REMARK   41  A    between atoms: _101  and  _102
REMARK   42  A    between atoms: _101  and  _104
REMARK   43  A    between atoms: _107  and  _109
REMARK   44  A    between atoms: _109  and  _110
REMARK   45  A    between atoms: _109  and  _112
REMARK   46  A    between atoms: _112  and  _113
REMARK   47  A    between atoms: _119  and  _121
REMARK   48  A    between atoms: _121  and  _122
REMARK   49  A    between atoms: _121  and  _124
REMARK   50  A    between atoms: _124  and  _125
REMARK   51  A    between atoms: _128  and  _130
REMARK   52  A    between atoms: _130  and  _131
REMARK   53  A    between atoms: _130  and  _133
REMARK   54  A    between atoms: _133  and  _134
REMARK   55  A    between atoms: _137  and  _139
REMARK   56  A    between atoms: _139  and  _140
REMARK   57  A    between atoms: _142  and  _144
REMARK   58  A    between atoms: _144  and  _145
REMARK   59  A    between atoms: _144  and  _147
REMARK   60  A    between atoms: _147  and  _148
REMARK   61  A    between atoms: _150  and  _152
REMARK   62  A    between atoms: _152  and  _153
REMARK   63  A    between atoms: _152  and  _155
REMARK   64  A    between atoms: _155  and  _156
REMARK   65  A    between atoms: _158  and  _160
REMARK   66  A    between atoms: _160  and  _161
REMARK   67  A    between atoms: _160  and  _163
REMARK   68  A    between atoms: _163  and  _164
REMARK   69  A    between atoms: _174  and  _176
REMARK   70  A    between atoms: _176  and  _177
REMARK   71  A    between atoms: _176  and  _179
REMARK   72  A    between atoms: _179  and  _180
REMARK   73  A    between atoms: _180  and  _181
REMARK   74  A    between atoms: _181  and  _182
REMARK   75  A    between atoms: _191  and  _193
REMARK   76  A    between atoms: _193  and  _194
REMARK   77  A    between atoms: _193  and  _196
REMARK   78  A    between atoms: _196  and  _197
REMARK   79  A    between atoms: _202  and  _203
REMARK   80  A    between atoms: _205  and  _207
REMARK   81  A    between atoms: _207  and  _208
REMARK   82  A    between atoms: _207  and  _210
REMARK   83  A    between atoms: _210  and  _211
REMARK   84  A    between atoms: _213  and  _215
REMARK   85  A    between atoms: _215  and  _216
REMARK   86  A    between atoms: _215  and  _218
REMARK   87  A    between atoms: _218  and  _219
REMARK   88  A    between atoms: _222  and  _224
REMARK   89  A    between atoms: _224  and  _225
REMARK   90  A    between atoms: _227  and  _229
REMARK   91  A    between atoms: _229  and  _230
REMARK   92  A    between atoms: _229  and  _232
REMARK   93  A    between atoms: _232  and  _233
REMARK   94  A    between atoms: _236  and  _238
REMARK   95  A    between atoms: _238  and  _239
REMARK   96  A    between atoms: _238  and  _241
REMARK   97  A    between atoms: _244  and  _246
REMARK   98  A    between atoms: _246  and  _247
REMARK   99  A    between atoms: _250  and  _252
REMARK  100  A    between atoms: _252  and  _253
REMARK  101  A    between atoms: _252  and  _255
REMARK  102  A    between atoms: _255  and  _256
REMARK  103  A    between atoms: _260  and  _261
REMARK  104  A    between atoms: _266  and  _268
REMARK  105  A    between atoms: _268  and  _269
REMARK  106  A    between atoms: _268  and  _271
REMARK  107  A    between atoms: _271  and  _272
REMARK  108  A    between atoms: _278  and  _280
REMARK  109  A    between atoms: _280  and  _281
REMARK  110  A    between atoms: _280  and  _283
REMARK  111  A    between atoms: _283  and  _284
REMARK  112  A    between atoms: _284  and  _285
REMARK  113  A    between atoms: _287  and  _289
REMARK  114  A    between atoms: _289  and  _290
REMARK  115  A    between atoms: _289  and  _292
REMARK  116  A    between atoms: _292  and  _293
REMARK  117  A    between atoms: _296  and  _298
REMARK  118  A    between atoms: _298  and  _299
REMARK  119  A    between atoms: _302  and  _304
REMARK  120  A    between atoms: _304  and  _305
REMARK  121  A    between atoms: _304  and  _307
REMARK  122  A    between atoms: _307  and  _308
REMARK  123  A    between atoms: _308  and  _309
REMARK  124  A    between atoms: _312  and  _314
REMARK  125  A    between atoms: _314  and  _315
REMARK  126  A    between atoms: _314  and  _317
REMARK  127  A    between atoms: _317  and  _318
REMARK  128  A    between atoms: _324  and  _326
REMARK  129  A    between atoms: _326  and  _327
REMARK  130  A    between atoms: _329  and  _331
REMARK  131  A    between atoms: _331  and  _332
REMARK  132  A    between atoms: _331  and  _334
REMARK  133  A    between atoms: _337  and  _339
REMARK  134  A    between atoms: _339  and  _340
REMARK  135  A    between atoms: _339  and  _342
REMARK  136  A    between atoms: _345  and  _347
REMARK  137  A    between atoms: _347  and  _348
REMARK  138  A    between atoms: _350  and  _352
REMARK  139  A    between atoms: _352  and  _353
REMARK  140  A    between atoms: _352  and  _355
REMARK  141  A    between atoms: _355  and  _356
REMARK  142  A    between atoms: _356  and  _357
REMARK  143  A    between atoms: _359  and  _361
REMARK  144  A    between atoms: _361  and  _362
REMARK  145  A    between atoms: _361  and  _364
REMARK  146  A    between atoms: _364  and  _365
REMARK  147  A    between atoms: _371  and  _373
REMARK  148  A    between atoms: _373  and  _374
REMARK  149  A    between atoms: _373  and  _376
REMARK  150  A    between atoms: _376  and  _377
REMARK  151  A    between atoms: _382  and  _383
REMARK  152  A    between atoms: _385  and  _387
REMARK  153  A    between atoms: _387  and  _388
REMARK  154  A    between atoms: _387  and  _390
REMARK  155  A    between atoms: _390  and  _391
REMARK  156  A    between atoms: _394  and  _396
REMARK  157  A    between atoms: _396  and  _397
REMARK  158  A    between atoms: _396  and  _399
REMARK  159  A    between atoms: _402  and  _404
REMARK  160  A    between atoms: _404  and  _405
REMARK  161  A    between atoms: _404  and  _407
REMARK  162  A    between atoms: _407  and  _408
REMARK  163  A    between atoms: _411  and  _413
REMARK  164  A    between atoms: _413  and  _414
REMARK  165  A    between atoms: _413  and  _416
REMARK  166  A    between atoms: _416  and  _417
REMARK  167  A    between atoms: _420  and  _422
REMARK  168  A    between atoms: _422  and  _423
REMARK  169  A    between atoms: _425  and  _427
REMARK  170  A    between atoms: _427  and  _428
REMARK  171  A    between atoms: _431  and  _433
REMARK  172  A    between atoms: _433  and  _434
REMARK  173  A    between atoms: _433  and  _436
REMARK  174  A    between atoms: _436  and  _437
REMARK  175  A    between atoms: _439  and  _441
REMARK  176  A    between atoms: _441  and  _442
REMARK  177  A    between atoms: _441  and  _444
REMARK  178  A    between atoms: _444  and  _445
REMARK  179  A    between atoms: _450  and  _451
REMARK  180  A    between atoms: _453  and  _455
REMARK  181  A    between atoms: _455  and  _456
REMARK  182  A    between atoms: _455  and  _458
REMARK  183  A    between atoms: _458  and  _459
REMARK  184  A    between atoms: _462  and  _464
REMARK  185  A    between atoms: _464  and  _465
REMARK  186  A    between atoms: _464  and  _467
REMARK  187  A    between atoms: _467  and  _468
REMARK  188  A    between atoms: _470  and  _472
REMARK  189  A    between atoms: _472  and  _473
REMARK  190  A    between atoms: _475  and  _477
REMARK  191  A    between atoms: _477  and  _478
REMARK  192  A    between atoms: _477  and  _480
REMARK  193  A    between atoms: _480  and  _481
REMARK  194  A    between atoms: _481  and  _482
REMARK  195  A    between atoms: _482  and  _483
REMARK  196  A    between atoms: _483  and  _484
REMARK  197  A    between atoms: _488  and  _490
REMARK  198  A    between atoms: _490  and  _491
REMARK  199  A    between atoms: _490  and  _493
REMARK  200  A    between atoms: _493  and  _494
REMARK  201  A    between atoms: _500  and  _502
REMARK  202  A    between atoms: _502  and  _503
REMARK  203  A    between atoms: _502  and  _505
REMARK  204  A    between atoms: _505  and  _506
REMARK  205  A    between atoms: _509  and  _511
REMARK  206  A    between atoms: _511  and  _512
REMARK  207  A    between atoms: _511  and  _514
REMARK  208  A    between atoms: _514  and  _515
REMARK  209  A    between atoms: _520  and  _521
REMARK  210  A    between atoms: _523  and  _525
REMARK  211  A    between atoms: _525  and  _526
REMARK  212  A    between atoms: _529  and  _531
REMARK  213  A    between atoms: _531  and  _532
REMARK  214  A    between atoms: _531  and  _534
REMARK  215  A    between atoms: _534  and  _535
REMARK  216  A    between atoms: _538  and  _540
REMARK  217  A    between atoms: _540  and  _541
REMARK  218  A    between atoms: _540  and  _543
REMARK  219  A    between atoms: _543  and  _544
REMARK  220  A    between atoms: _549  and  _551
REMARK  221  A    between atoms: _551  and  _552
REMARK  222  A    between atoms: _555  and  _557
REMARK  223  A    between atoms: _557  and  _558
REMARK  224  A    between atoms: _557  and  _560
REMARK  225  A    between atoms: _560  and  _561
REMARK  226  A    between atoms: _561  and  _562
REMARK  227  A    between atoms: _564  and  _566
REMARK  228  A    between atoms: _566  and  _567
REMARK  229  A    between atoms: _566  and  _569
REMARK  230  A    between atoms: _569  and  _570
REMARK  231  A    between atoms: _573  and  _575
REMARK  232  A    between atoms: _575  and  _576
REMARK  233  A    between atoms: _575  and  _578
REMARK  234  A    between atoms: _578  and  _579
REMARK  235  A    between atoms: _582  and  _584
REMARK  236  A    between atoms: _584  and  _585
REMARK  237  A    between atoms: _588  and  _590
REMARK  238  A    between atoms: _590  and  _591
REMARK  239  A    between atoms: _590  and  _593
REMARK  240  A    between atoms: _593  and  _594
REMARK  241  A    between atoms: _597  and  _599
REMARK  242  A    between atoms: _599  and  _600
REMARK  243  A    between atoms: _602  and  _604
REMARK  244  A    between atoms: _604  and  _605
REMARK  245  A    between atoms: _608  and  _610
REMARK  246  A    between atoms: _610  and  _611
REMARK  247  A    between atoms: _610  and  _613
REMARK  248  A    between atoms: _613  and  _614
REMARK  249  A    between atoms: _617  and  _619
REMARK  250  A    between atoms: _619  and  _620
REMARK  251  A    between atoms: _619  and  _622
REMARK  252  A    between atoms: _622  and  _623
REMARK  253  A    between atoms: _626  and  _628
REMARK  254  A    between atoms: _628  and  _629
REMARK  255  A    between atoms: _628  and  _631
REMARK  256  A    between atoms: _631  and  _632
REMARK  257  A    between atoms: _632  and  _633
REMARK  258  A    between atoms: _633  and  _634
REMARK  259  A    between atoms: _643  and  _645
REMARK  260  A    between atoms: _645  and  _646
REMARK  261  A    between atoms: _645  and  _648
REMARK  262  A    between atoms: _648  and  _649
REMARK  263  A    between atoms: _649  and  _650
REMARK  264  A    between atoms: _650  and  _651
REMARK  265  A    between atoms: _651  and  _652
REMARK  266  A    between atoms: _656  and  _658
REMARK  267  A    between atoms: _658  and  _659
REMARK  268  A    between atoms: _658  and  _661
REMARK  269  A    between atoms: _661  and  _662
REMARK  270  A    between atoms: _667  and  _669
REMARK  271  A    between atoms: _669  and  _670
REMARK  272  A    between atoms: _669  and  _672
REMARK  273  A    between atoms: _672  and  _673
REMARK  274  A    between atoms: _673  and  _674
REMARK  275  A    between atoms: _677  and  _679
REMARK  276  A    between atoms: _679  and  _680
REMARK  277  A    between atoms: _679  and  _682
REMARK  278  A    between atoms: _682  and  _683
REMARK  279  A    between atoms: _686  and  _688
REMARK  280  A    between atoms: _688  and  _689
REMARK  281  A    between atoms: _688  and  _691
REMARK  282  A    between atoms: _691  and  _692
REMARK                            x       y       z     vdW  Elec       q    Type
REMARK                         _______ _______ _______ _____ _____    ______ ____
ROOT
ATOM      1  O   HOH     1     -45.078 -27.208 -41.790  0.00  0.00    +0.000 OA
ENDROOT
TORSDOF 0
REMARK  Name = ../refined-set-2016/2il2/2il2_pocket.pdb
REMARK  282 active torsions:
REMARK  status: ('A' for Active; 'I' for Inactive)
REMARK    1  A    between atoms: _1  and  _3
REMARK    2  A    between atoms: _3  and  _4
REMARK    3  A    between atoms: _3  and  _6
REMARK    4  A    between atoms: _6  and  _7
REMARK    5  A    between atoms: _10  and  _12
REMARK    6  A    between atoms: _12  and  _13
REMARK    7  A    between atoms: _12  and  _15
REMARK    8  A    between atoms: _15  and  _16
REMARK    9  A    between atoms: _19  and  _21
REMARK   10  A    between atoms: _21  and  _22
REMARK   11  A    between atoms: _21  and  _24
REMARK   12  A    between atoms: _24  and  _25
REMARK   13  A    between atoms: _30  and  _31
REMARK   14  A    between atoms: _33  and  _35
REMARK   15  A    between atoms: _35  and  _36
REMARK   16  A    between atoms: _35  and  _38
REMARK   17  A    between atoms: _38  and  _39
REMARK   18  A    between atoms: _42  and  _44
REMARK   19  A    between atoms: _44  and  _45
REMARK   20  A    between atoms: _44  and  _47
REMARK   21  A    between atoms: _47  and  _48
REMARK   22  A    between atoms: _51  and  _53
REMARK   23  A    between atoms: _53  and  _54
REMARK   24  A    between atoms: _53  and  _56
REMARK   25  A    between atoms: _56  and  _57
REMARK   26  A    between atoms: _57  and  _58
REMARK   27  A    between atoms: _63  and  _65
REMARK   28  A    between atoms: _65  and  _66
REMARK   29  A    between atoms: _65  and  _68
REMARK   30  A    between atoms: _68  and  _69
REMARK   31  A    between atoms: _74  and  _75
REMARK   32  A    between atoms: _77  and  _79
REMARK   33  A    between atoms: _79  and  _80
REMARK   34  A    between atoms: _79  and  _82
REMARK   35  A    between atoms: _82  and  _83
REMARK   36  A    between atoms: _88  and  _89
REMARK   37  A    between atoms: _91  and  _93
REMARK   38  A    between atoms: _93  and  _94
REMARK   39  A    between atoms: _93  and  _96
REMARK   40  A    between atoms: _99  and  _101
REMARK   41  A    between atoms: _101  and  _102
REMARK   42  A    between atoms: _101  and  _104
REMARK   43  A    between atoms: _107  and  _109
REMARK   44  A    between atoms: _109  and  _110
REMARK   45  A    between atoms: _109  and  _112
REMARK   46  A    between atoms: _112  and  _113
REMARK   47  A    between atoms: _119  and  _121
REMARK   48  A    between atoms: _121  and  _122
REMARK   49  A    between atoms: _121  and  _124
REMARK   50  A    between atoms: _124  and  _125
REMARK   51  A    between atoms: _128  and  _130
REMARK   52  A    between atoms: _130  and  _131
REMARK   53  A    between atoms: _130  and  _133
REMARK   54  A    between atoms: _133  and  _134
REMARK   55  A    between atoms: _137  and  _139
REMARK   56  A    between atoms: _139  and  _140
REMARK   57  A    between atoms: _142  and  _144
REMARK   58  A    between atoms: _144  and  _145
REMARK   59  A    between atoms: _144  and  _147
REMARK   60  A    between atoms: _147  and  _148
REMARK   61  A    between atoms: _150  and  _152
REMARK   62  A    between atoms: _152  and  _153
REMARK   63  A    between atoms: _152  and  _155
REMARK   64  A    between atoms: _155  and  _156
REMARK   65  A    between atoms: _158  and  _160
REMARK   66  A    between atoms: _160  and  _161
REMARK   67  A    between atoms: _160  and  _163
REMARK   68  A    between atoms: _163  and  _164
REMARK   69  A    between atoms: _174  and  _176
REMARK   70  A    between atoms: _176  and  _177
REMARK   71  A    between atoms: _176  and  _179
REMARK   72  A    between atoms: _179  and  _180
REMARK   73  A    between atoms: _180  and  _181
REMARK   74  A    between atoms: _181  and  _182
REMARK   75  A    between atoms: _191  and  _193
REMARK   76  A    between atoms: _193  and  _194
REMARK   77  A    between atoms: _193  and  _196
REMARK   78  A    between atoms: _196  and  _197
REMARK   79  A    between atoms: _202  and  _203
REMARK   80  A    between atoms: _205  and  _207
REMARK   81  A    between atoms: _207  and  _208
REMARK   82  A    between atoms: _207  and  _210
REMARK   83  A    between atoms: _210  and  _211
REMARK   84  A    between atoms: _213  and  _215
REMARK   85  A    between atoms: _215  and  _216
REMARK   86  A    between atoms: _215  and  _218
REMARK   87  A    between atoms: _218  and  _219
REMARK   88  A    between atoms: _222  and  _224
REMARK   89  A    between atoms: _224  and  _225
REMARK   90  A    between atoms: _227  and  _229
REMARK   91  A    between atoms: _229  and  _230
REMARK   92  A    between atoms: _229  and  _232
REMARK   93  A    between atoms: _232  and  _233
REMARK   94  A    between atoms: _236  and  _238
REMARK   95  A    between atoms: _238  and  _239
REMARK   96  A    between atoms: _238  and  _241
REMARK   97  A    between atoms: _244  and  _246
REMARK   98  A    between atoms: _246  and  _247
REMARK   99  A    between atoms: _250  and  _252
REMARK  100  A    between atoms: _252  and  _253
REMARK  101  A    between atoms: _252  and  _255
REMARK  102  A    between atoms: _255  and  _256
REMARK  103  A    between atoms: _260  and  _261
REMARK  104  A    between atoms: _266  and  _268
REMARK  105  A    between atoms: _268  and  _269
REMARK  106  A    between atoms: _268  and  _271
REMARK  107  A    between atoms: _271  and  _272
REMARK  108  A    between atoms: _278  and  _280
REMARK  109  A    between atoms: _280  and  _281
REMARK  110  A    between atoms: _280  and  _283
REMARK  111  A    between atoms: _283  and  _284
REMARK  112  A    between atoms: _284  and  _285
REMARK  113  A    between atoms: _287  and  _289
REMARK  114  A    between atoms: _289  and  _290
REMARK  115  A    between atoms: _289  and  _292
REMARK  116  A    between atoms: _292  and  _293
REMARK  117  A    between atoms: _296  and  _298
REMARK  118  A    between atoms: _298  and  _299
REMARK  119  A    between atoms: _302  and  _304
REMARK  120  A    between atoms: _304  and  _305
REMARK  121  A    between atoms: _304  and  _307
REMARK  122  A    between atoms: _307  and  _308
REMARK  123  A    between atoms: _308  and  _309
REMARK  124  A    between atoms: _312  and  _314
REMARK  125  A    between atoms: _314  and  _315
REMARK  126  A    between atoms: _314  and  _317
REMARK  127  A    between atoms: _317  and  _318
REMARK  128  A    between atoms: _324  and  _326
REMARK  129  A    between atoms: _326  and  _327
REMARK  130  A    between atoms: _329  and  _331
REMARK  131  A    between atoms: _331  and  _332
REMARK  132  A    between atoms: _331  and  _334
REMARK  133  A    between atoms: _337  and  _339
REMARK  134  A    between atoms: _339  and  _340
REMARK  135  A    between atoms: _339  and  _342
REMARK  136  A    between atoms: _345  and  _347
REMARK  137  A    between atoms: _347  and  _348
REMARK  138  A    between atoms: _350  and  _352
REMARK  139  A    between atoms: _352  and  _353
REMARK  140  A    between atoms: _352  and  _355
REMARK  141  A    between atoms: _355  and  _356
REMARK  142  A    between atoms: _356  and  _357
REMARK  143  A    between atoms: _359  and  _361
REMARK  144  A    between atoms: _361  and  _362
REMARK  145  A    between atoms: _361  and  _364
REMARK  146  A    between atoms: _364  and  _365
REMARK  147  A    between atoms: _371  and  _373
REMARK  148  A    between atoms: _373  and  _374
REMARK  149  A    between atoms: _373  and  _376
REMARK  150  A    between atoms: _376  and  _377
REMARK  151  A    between atoms: _382  and  _383
REMARK  152  A    between atoms: _385  and  _387
REMARK  153  A    between atoms: _387  and  _388
REMARK  154  A    between atoms: _387  and  _390
REMARK  155  A    between atoms: _390  and  _391
REMARK  156  A    between atoms: _394  and  _396
REMARK  157  A    between atoms: _396  and  _397
REMARK  158  A    between atoms: _396  and  _399
REMARK  159  A    between atoms: _402  and  _404
REMARK  160  A    between atoms: _404  and  _405
REMARK  161  A    between atoms: _404  and  _407
REMARK  162  A    between atoms: _407  and  _408
REMARK  163  A    between atoms: _411  and  _413
REMARK  164  A    between atoms: _413  and  _414
REMARK  165  A    between atoms: _413  and  _416
REMARK  166  A    between atoms: _416  and  _417
REMARK  167  A    between atoms: _420  and  _422
REMARK  168  A    between atoms: _422  and  _423
REMARK  169  A    between atoms: _425  and  _427
REMARK  170  A    between atoms: _427  and  _428
REMARK  171  A    between atoms: _431  and  _433
REMARK  172  A    between atoms: _433  and  _434
REMARK  173  A    between atoms: _433  and  _436
REMARK  174  A    between atoms: _436  and  _437
REMARK  175  A    between atoms: _439  and  _441
REMARK  176  A    between atoms: _441  and  _442
REMARK  177  A    between atoms: _441  and  _444
REMARK  178  A    between atoms: _444  and  _445
REMARK  179  A    between atoms: _450  and  _451
REMARK  180  A    between atoms: _453  and  _455
REMARK  181  A    between atoms: _455  and  _456
REMARK  182  A    between atoms: _455  and  _458
REMARK  183  A    between atoms: _458  and  _459
REMARK  184  A    between atoms: _462  and  _464
REMARK  185  A    between atoms: _464  and  _465
REMARK  186  A    between atoms: _464  and  _467
REMARK  187  A    between atoms: _467  and  _468
REMARK  188  A    between atoms: _470  and  _472
REMARK  189  A    between atoms: _472  and  _473
REMARK  190  A    between atoms: _475  and  _477
REMARK  191  A    between atoms: _477  and  _478
REMARK  192  A    between atoms: _477  and  _480
REMARK  193  A    between atoms: _480  and  _481
REMARK  194  A    between atoms: _481  and  _482
REMARK  195  A    between atoms: _482  and  _483
REMARK  196  A    between atoms: _483  and  _484
REMARK  197  A    between atoms: _488  and  _490
REMARK  198  A    between atoms: _490  and  _491
REMARK  199  A    between atoms: _490  and  _493
REMARK  200  A    between atoms: _493  and  _494
REMARK  201  A    between atoms: _500  and  _502
REMARK  202  A    between atoms: _502  and  _503
REMARK  203  A    between atoms: _502  and  _505
REMARK  204  A    between atoms: _505  and  _506
REMARK  205  A    between atoms: _509  and  _511
REMARK  206  A    between atoms: _511  and  _512
REMARK  207  A    between atoms: _511  and  _514
REMARK  208  A    between atoms: _514  and  _515
REMARK  209  A    between atoms: _520  and  _521
REMARK  210  A    between atoms: _523  and  _525
REMARK  211  A    between atoms: _525  and  _526
REMARK  212  A    between atoms: _529  and  _531
REMARK  213  A    between atoms: _531  and  _532
REMARK  214  A    between atoms: _531  and  _534
REMARK  215  A    between atoms: _534  and  _535
REMARK  216  A    between atoms: _538  and  _540
REMARK  217  A    between atoms: _540  and  _541
REMARK  218  A    between atoms: _540  and  _543
REMARK  219  A    between atoms: _543  and  _544
REMARK  220  A    between atoms: _549  and  _551
REMARK  221  A    between atoms: _551  and  _552
REMARK  222  A    between atoms: _555  and  _557
REMARK  223  A    between atoms: _557  and  _558
REMARK  224  A    between atoms: _557  and  _560
REMARK  225  A    between atoms: _560  and  _561
REMARK  226  A    between atoms: _561  and  _562
REMARK  227  A    between atoms: _564  and  _566
REMARK  228  A    between atoms: _566  and  _567
REMARK  229  A    between atoms: _566  and  _569
REMARK  230  A    between atoms: _569  and  _570
REMARK  231  A    between atoms: _573  and  _575
REMARK  232  A    between atoms: _575  and  _576
REMARK  233  A    between atoms: _575  and  _578
REMARK  234  A    between atoms: _578  and  _579
REMARK  235  A    between atoms: _582  and  _584
REMARK  236  A    between atoms: _584  and  _585
REMARK  237  A    between atoms: _588  and  _590
REMARK  238  A    between atoms: _590  and  _591
REMARK  239  A    between atoms: _590  and  _593
REMARK  240  A    between atoms: _593  and  _594
REMARK  241  A    between atoms: _597  and  _599
REMARK  242  A    between atoms: _599  and  _600
REMARK  243  A    between atoms: _602  and  _604
REMARK  244  A    between atoms: _604  and  _605
REMARK  245  A    between atoms: _608  and  _610
REMARK  246  A    between atoms: _610  and  _611
REMARK  247  A    between atoms: _610  and  _613
REMARK  248  A    between atoms: _613  and  _614
REMARK  249  A    between atoms: _617  and  _619
REMARK  250  A    between atoms: _619  and  _620
REMARK  251  A    between atoms: _619  and  _622
REMARK  252  A    between atoms: _622  and  _623
REMARK  253  A    between atoms: _626  and  _628
REMARK  254  A    between atoms: _628  and  _629
REMARK  255  A    between atoms: _628  and  _631
REMARK  256  A    between atoms: _631  and  _632
REMARK  257  A    between atoms: _632  and  _633
REMARK  258  A    between atoms: _633  and  _634
REMARK  259  A    between atoms: _643  and  _645
REMARK  260  A    between atoms: _645  and  _646
REMARK  261  A    between atoms: _645  and  _648
REMARK  262  A    between atoms: _648  and  _649
REMARK  263  A    between atoms: _649  and  _650
REMARK  264  A    between atoms: _650  and  _651
REMARK  265  A    between atoms: _651  and  _652
REMARK  266  A    between atoms: _656  and  _658
REMARK  267  A    between atoms: _658  and  _659
REMARK  268  A    between atoms: _658  and  _661
REMARK  269  A    between atoms: _661  and  _662
REMARK  270  A    between atoms: _667  and  _669
REMARK  271  A    between atoms: _669  and  _670
REMARK  272  A    between atoms: _669  and  _672
REMARK  273  A    between atoms: _672  and  _673
REMARK  274  A    between atoms: _673  and  _674
REMARK  275  A    between atoms: _677  and  _679
REMARK  276  A    between atoms: _679  and  _680
REMARK  277  A    between atoms: _679  and  _682
REMARK  278  A    between atoms: _682  and  _683
REMARK  279  A    between atoms: _686  and  _688
REMARK  280  A    between atoms: _688  and  _689
REMARK  281  A    between atoms: _688  and  _691
REMARK  282  A    between atoms: _691  and  _692
REMARK                            x       y       z     vdW  Elec       q    Type
REMARK                         _______ _______ _______ _____ _____    ______ ____
ROOT
ATOM      1  O   HOH     1     -62.617 -13.478 -39.864  0.00  0.00    +0.000 OA
ENDROOT
TORSDOF 0
REMARK  Name = ../refined-set-2016/2il2/2il2_pocket.pdb
REMARK  282 active torsions:
REMARK  status: ('A' for Active; 'I' for Inactive)
REMARK    1  A    between atoms: _1  and  _3
REMARK    2  A    between atoms: _3  and  _4
REMARK    3  A    between atoms: _3  and  _6
REMARK    4  A    between atoms: _6  and  _7
REMARK    5  A    between atoms: _10  and  _12
REMARK    6  A    between atoms: _12  and  _13
REMARK    7  A    between atoms: _12  and  _15
REMARK    8  A    between atoms: _15  and  _16
REMARK    9  A    between atoms: _19  and  _21
REMARK   10  A    between atoms: _21  and  _22
REMARK   11  A    between atoms: _21  and  _24
REMARK   12  A    between atoms: _24  and  _25
REMARK   13  A    between atoms: _30  and  _31
REMARK   14  A    between atoms: _33  and  _35
REMARK   15  A    between atoms: _35  and  _36
REMARK   16  A    between atoms: _35  and  _38
REMARK   17  A    between atoms: _38  and  _39
REMARK   18  A    between atoms: _42  and  _44
REMARK   19  A    between atoms: _44  and  _45
REMARK   20  A    between atoms: _44  and  _47
REMARK   21  A    between atoms: _47  and  _48
REMARK   22  A    between atoms: _51  and  _53
REMARK   23  A    between atoms: _53  and  _54
REMARK   24  A    between atoms: _53  and  _56
REMARK   25  A    between atoms: _56  and  _57
REMARK   26  A    between atoms: _57  and  _58
REMARK   27  A    between atoms: _63  and  _65
REMARK   28  A    between atoms: _65  and  _66
REMARK   29  A    between atoms: _65  and  _68
REMARK   30  A    between atoms: _68  and  _69
REMARK   31  A    between atoms: _74  and  _75
REMARK   32  A    between atoms: _77  and  _79
REMARK   33  A    between atoms: _79  and  _80
REMARK   34  A    between atoms: _79  and  _82
REMARK   35  A    between atoms: _82  and  _83
REMARK   36  A    between atoms: _88  and  _89
REMARK   37  A    between atoms: _91  and  _93
REMARK   38  A    between atoms: _93  and  _94
REMARK   39  A    between atoms: _93  and  _96
REMARK   40  A    between atoms: _99  and  _101
REMARK   41  A    between atoms: _101  and  _102
REMARK   42  A    between atoms: _101  and  _104
REMARK   43  A    between atoms: _107  and  _109
REMARK   44  A    between atoms: _109  and  _110
REMARK   45  A    between atoms: _109  and  _112
REMARK   46  A    between atoms: _112  and  _113
REMARK   47  A    between atoms: _119  and  _121
REMARK   48  A    between atoms: _121  and  _122
REMARK   49  A    between atoms: _121  and  _124
REMARK   50  A    between atoms: _124  and  _125
REMARK   51  A    between atoms: _128  and  _130
REMARK   52  A    between atoms: _130  and  _131
REMARK   53  A    between atoms: _130  and  _133
REMARK   54  A    between atoms: _133  and  _134
REMARK   55  A    between atoms: _137  and  _139
REMARK   56  A    between atoms: _139  and  _140
REMARK   57  A    between atoms: _142  and  _144
REMARK   58  A    between atoms: _144  and  _145
REMARK   59  A    between atoms: _144  and  _147
REMARK   60  A    between atoms: _147  and  _148
REMARK   61  A    between atoms: _150  and  _152
REMARK   62  A    between atoms: _152  and  _153
REMARK   63  A    between atoms: _152  and  _155
REMARK   64  A    between atoms: _155  and  _156
REMARK   65  A    between atoms: _158  and  _160
REMARK   66  A    between atoms: _160  and  _161
REMARK   67  A    between atoms: _160  and  _163
REMARK   68  A    between atoms: _163  and  _164
REMARK   69  A    between atoms: _174  and  _176
REMARK   70  A    between atoms: _176  and  _177
REMARK   71  A    between atoms: _176  and  _179
REMARK   72  A    between atoms: _179  and  _180
REMARK   73  A    between atoms: _180  and  _181
REMARK   74  A    between atoms: _181  and  _182
REMARK   75  A    between atoms: _191  and  _193
REMARK   76  A    between atoms: _193  and  _194
REMARK   77  A    between atoms: _193  and  _196
REMARK   78  A    between atoms: _196  and  _197
REMARK   79  A    between atoms: _202  and  _203
REMARK   80  A    between atoms: _205  and  _207
REMARK   81  A    between atoms: _207  and  _208
REMARK   82  A    between atoms: _207  and  _210
REMARK   83  A    between atoms: _210  and  _211
REMARK   84  A    between atoms: _213  and  _215
REMARK   85  A    between atoms: _215  and  _216
REMARK   86  A    between atoms: _215  and  _218
REMARK   87  A    between atoms: _218  and  _219
REMARK   88  A    between atoms: _222  and  _224
REMARK   89  A    between atoms: _224  and  _225
REMARK   90  A    between atoms: _227  and  _229
REMARK   91  A    between atoms: _229  and  _230
REMARK   92  A    between atoms: _229  and  _232
REMARK   93  A    between atoms: _232  and  _233
REMARK   94  A    between atoms: _236  and  _238
REMARK   95  A    between atoms: _238  and  _239
REMARK   96  A    between atoms: _238  and  _241
REMARK   97  A    between atoms: _244  and  _246
REMARK   98  A    between atoms: _246  and  _247
REMARK   99  A    between atoms: _250  and  _252
REMARK  100  A    between atoms: _252  and  _253
REMARK  101  A    between atoms: _252  and  _255
REMARK  102  A    between atoms: _255  and  _256
REMARK  103  A    between atoms: _260  and  _261
REMARK  104  A    between atoms: _266  and  _268
REMARK  105  A    between atoms: _268  and  _269
REMARK  106  A    between atoms: _268  and  _271
REMARK  107  A    between atoms: _271  and  _272
REMARK  108  A    between atoms: _278  and  _280
REMARK  109  A    between atoms: _280  and  _281
REMARK  110  A    between atoms: _280  and  _283
REMARK  111  A    between atoms: _283  and  _284
REMARK  112  A    between atoms: _284  and  _285
REMARK  113  A    between atoms: _287  and  _289
REMARK  114  A    between atoms: _289  and  _290
REMARK  115  A    between atoms: _289  and  _292
REMARK  116  A    between atoms: _292  and  _293
REMARK  117  A    between atoms: _296  and  _298
REMARK  118  A    between atoms: _298  and  _299
REMARK  119  A    between atoms: _302  and  _304
REMARK  120  A    between atoms: _304  and  _305
REMARK  121  A    between atoms: _304  and  _307
REMARK  122  A    between atoms: _307  and  _308
REMARK  123  A    between atoms: _308  and  _309
REMARK  124  A    between atoms: _312  and  _314
REMARK  125  A    between atoms: _314  and  _315
REMARK  126  A    between atoms: _314  and  _317
REMARK  127  A    between atoms: _317  and  _318
REMARK  128  A    between atoms: _324  and  _326
REMARK  129  A    between atoms: _326  and  _327
REMARK  130  A    between atoms: _329  and  _331
REMARK  131  A    between atoms: _331  and  _332
REMARK  132  A    between atoms: _331  and  _334
REMARK  133  A    between atoms: _337  and  _339
REMARK  134  A    between atoms: _339  and  _340
REMARK  135  A    between atoms: _339  and  _342
REMARK  136  A    between atoms: _345  and  _347
REMARK  137  A    between atoms: _347  and  _348
REMARK  138  A    between atoms: _350  and  _352
REMARK  139  A    between atoms: _352  and  _353
REMARK  140  A    between atoms: _352  and  _355
REMARK  141  A    between atoms: _355  and  _356
REMARK  142  A    between atoms: _356  and  _357
REMARK  143  A    between atoms: _359  and  _361
REMARK  144  A    between atoms: _361  and  _362
REMARK  145  A    between atoms: _361  and  _364
REMARK  146  A    between atoms: _364  and  _365
REMARK  147  A    between atoms: _371  and  _373
REMARK  148  A    between atoms: _373  and  _374
REMARK  149  A    between atoms: _373  and  _376
REMARK  150  A    between atoms: _376  and  _377
REMARK  151  A    between atoms: _382  and  _383
REMARK  152  A    between atoms: _385  and  _387
REMARK  153  A    between atoms: _387  and  _388
REMARK  154  A    between atoms: _387  and  _390
REMARK  155  A    between atoms: _390  and  _391
REMARK  156  A    between atoms: _394  and  _396
REMARK  157  A    between atoms: _396  and  _397
REMARK  158  A    between atoms: _396  and  _399
REMARK  159  A    between atoms: _402  and  _404
REMARK  160  A    between atoms: _404  and  _405
REMARK  161  A    between atoms: _404  and  _407
REMARK  162  A    between atoms: _407  and  _408
REMARK  163  A    between atoms: _411  and  _413
REMARK  164  A    between atoms: _413  and  _414
REMARK  165  A    between atoms: _413  and  _416
REMARK  166  A    between atoms: _416  and  _417
REMARK  167  A    between atoms: _420  and  _422
REMARK  168  A    between atoms: _422  and  _423
REMARK  169  A    between atoms: _425  and  _427
REMARK  170  A    between atoms: _427  and  _428
REMARK  171  A    between atoms: _431  and  _433
REMARK  172  A    between atoms: _433  and  _434
REMARK  173  A    between atoms: _433  and  _436
REMARK  174  A    between atoms: _436  and  _437
REMARK  175  A    between atoms: _439  and  _441
REMARK  176  A    between atoms: _441  and  _442
REMARK  177  A    between atoms: _441  and  _444
REMARK  178  A    between atoms: _444  and  _445
REMARK  179  A    between atoms: _450  and  _451
REMARK  180  A    between atoms: _453  and  _455
REMARK  181  A    between atoms: _455  and  _456
REMARK  182  A    between atoms: _455  and  _458
REMARK  183  A    between atoms: _458  and  _459
REMARK  184  A    between atoms: _462  and  _464
REMARK  185  A    between atoms: _464  and  _465
REMARK  186  A    between atoms: _464  and  _467
REMARK  187  A    between atoms: _467  and  _468
REMARK  188  A    between atoms: _470  and  _472
REMARK  189  A    between atoms: _472  and  _473
REMARK  190  A    between atoms: _475  and  _477
REMARK  191  A    between atoms: _477  and  _478
REMARK  192  A    between atoms: _477  and  _480
REMARK  193  A    between atoms: _480  and  _481
REMARK  194  A    between atoms: _481  and  _482
REMARK  195  A    between atoms: _482  and  _483
REMARK  196  A    between atoms: _483  and  _484
REMARK  197  A    between atoms: _488  and  _490
REMARK  198  A    between atoms: _490  and  _491
REMARK  199  A    between atoms: _490  and  _493
REMARK  200  A    between atoms: _493  and  _494
REMARK  201  A    between atoms: _500  and  _502
REMARK  202  A    between atoms: _502  and  _503
REMARK  203  A    between atoms: _502  and  _505
REMARK  204  A    between atoms: _505  and  _506
REMARK  205  A    between atoms: _509  and  _511
REMARK  206  A    between atoms: _511  and  _512
REMARK  207  A    between atoms: _511  and  _514
REMARK  208  A    between atoms: _514  and  _515
REMARK  209  A    between atoms: _520  and  _521
REMARK  210  A    between atoms: _523  and  _525
REMARK  211  A    between atoms: _525  and  _526
REMARK  212  A    between atoms: _529  and  _531
REMARK  213  A    between atoms: _531  and  _532
REMARK  214  A    between atoms: _531  and  _534
REMARK  215  A    between atoms: _534  and  _535
REMARK  216  A    between atoms: _538  and  _540
REMARK  217  A    between atoms: _540  and  _541
REMARK  218  A    between atoms: _540  and  _543
REMARK  219  A    between atoms: _543  and  _544
REMARK  220  A    between atoms: _549  and  _551
REMARK  221  A    between atoms: _551  and  _552
REMARK  222  A    between atoms: _555  and  _557
REMARK  223  A    between atoms: _557  and  _558
REMARK  224  A    between atoms: _557  and  _560
REMARK  225  A    between atoms: _560  and  _561
REMARK  226  A    between atoms: _561  and  _562
REMARK  227  A    between atoms: _564  and  _566
REMARK  228  A    between atoms: _566  and  _567
REMARK  229  A    between atoms: _566  and  _569
REMARK  230  A    between atoms: _569  and  _570
REMARK  231  A    between atoms: _573  and  _575
REMARK  232  A    between atoms: _575  and  _576
REMARK  233  A    between atoms: _575  and  _578
REMARK  234  A    between atoms: _578  and  _579
REMARK  235  A    between atoms: _582  and  _584
REMARK  236  A    between atoms: _584  and  _585
REMARK  237  A    between atoms: _588  and  _590
REMARK  238  A    between atoms: _590  and  _591
REMARK  239  A    between atoms: _590  and  _593
REMARK  240  A    between atoms: _593  and  _594
REMARK  241  A    between atoms: _597  and  _599
REMARK  242  A    between atoms: _599  and  _600
REMARK  243  A    between atoms: _602  and  _604
REMARK  244  A    between atoms: _604  and  _605
REMARK  245  A    between atoms: _608  and  _610
REMARK  246  A    between atoms: _610  and  _611
REMARK  247  A    between atoms: _610  and  _613
REMARK  248  A    between atoms: _613  and  _614
REMARK  249  A    between atoms: _617  and  _619
REMARK  250  A    between atoms: _619  and  _620
REMARK  251  A    between atoms: _619  and  _622
REMARK  252  A    between atoms: _622  and  _623
REMARK  253  A    between atoms: _626  and  _628
REMARK  254  A    between atoms: _628  and  _629
REMARK  255  A    between atoms: _628  and  _631
REMARK  256  A    between atoms: _631  and  _632
REMARK  257  A    between atoms: _632  and  _633
REMARK  258  A    between atoms: _633  and  _634
REMARK  259  A    between atoms: _643  and  _645
REMARK  260  A    between atoms: _645  and  _646
REMARK  261  A    between atoms: _645  and  _648
REMARK  262  A    between atoms: _648  and  _649
REMARK  263  A    between atoms: _649  and  _650
REMARK  264  A    between atoms: _650  and  _651
REMARK  265  A    between atoms: _651  and  _652
REMARK  266  A    between atoms: _656  and  _658
REMARK  267  A    between atoms: _658  and  _659
REMARK  268  A    between atoms: _658  and  _661
REMARK  269  A    between atoms: _661  and  _662
REMARK  270  A    between atoms: _667  and  _669
REMARK  271  A    between atoms: _669  and  _670
REMARK  272  A    between atoms: _669  and  _672
REMARK  273  A    between atoms: _672  and  _673
REMARK  274  A    between atoms: _673  and  _674
REMARK  275  A    between atoms: _677  and  _679
REMARK  276  A    between atoms: _679  and  _680
REMARK  277  A    between atoms: _679  and  _682
REMARK  278  A    between atoms: _682  and  _683
REMARK  279  A    between atoms: _686  and  _688
REMARK  280  A    between atoms: _688  and  _689
REMARK  281  A    between atoms: _688  and  _691
REMARK  282  A    between atoms: _691  and  _692
REMARK                            x       y       z     vdW  Elec       q    Type
REMARK                         _______ _______ _______ _____ _____    ______ ____
ROOT
ATOM      1  O   HOH     1     -61.539 -10.454 -39.747  0.00  0.00    +0.000 OA
ENDROOT
TORSDOF 0
REMARK  Name = ../refined-set-2016/2il2/2il2_pocket.pdb
REMARK  282 active torsions:
REMARK  status: ('A' for Active; 'I' for Inactive)
REMARK    1  A    between atoms: _1  and  _3
REMARK    2  A    between atoms: _3  and  _4
REMARK    3  A    between atoms: _3  and  _6
REMARK    4  A    between atoms: _6  and  _7
REMARK    5  A    between atoms: _10  and  _12
REMARK    6  A    between atoms: _12  and  _13
REMARK    7  A    between atoms: _12  and  _15
REMARK    8  A    between atoms: _15  and  _16
REMARK    9  A    between atoms: _19  and  _21
REMARK   10  A    between atoms: _21  and  _22
REMARK   11  A    between atoms: _21  and  _24
REMARK   12  A    between atoms: _24  and  _25
REMARK   13  A    between atoms: _30  and  _31
REMARK   14  A    between atoms: _33  and  _35
REMARK   15  A    between atoms: _35  and  _36
REMARK   16  A    between atoms: _35  and  _38
REMARK   17  A    between atoms: _38  and  _39
REMARK   18  A    between atoms: _42  and  _44
REMARK   19  A    between atoms: _44  and  _45
REMARK   20  A    between atoms: _44  and  _47
REMARK   21  A    between atoms: _47  and  _48
REMARK   22  A    between atoms: _51  and  _53
REMARK   23  A    between atoms: _53  and  _54
REMARK   24  A    between atoms: _53  and  _56
REMARK   25  A    between atoms: _56  and  _57
REMARK   26  A    between atoms: _57  and  _58
REMARK   27  A    between atoms: _63  and  _65
REMARK   28  A    between atoms: _65  and  _66
REMARK   29  A    between atoms: _65  and  _68
REMARK   30  A    between atoms: _68  and  _69
REMARK   31  A    between atoms: _74  and  _75
REMARK   32  A    between atoms: _77  and  _79
REMARK   33  A    between atoms: _79  and  _80
REMARK   34  A    between atoms: _79  and  _82
REMARK   35  A    between atoms: _82  and  _83
REMARK   36  A    between atoms: _88  and  _89
REMARK   37  A    between atoms: _91  and  _93
REMARK   38  A    between atoms: _93  and  _94
REMARK   39  A    between atoms: _93  and  _96
REMARK   40  A    between atoms: _99  and  _101
REMARK   41  A    between atoms: _101  and  _102
REMARK   42  A    between atoms: _101  and  _104
REMARK   43  A    between atoms: _107  and  _109
REMARK   44  A    between atoms: _109  and  _110
REMARK   45  A    between atoms: _109  and  _112
REMARK   46  A    between atoms: _112  and  _113
REMARK   47  A    between atoms: _119  and  _121
REMARK   48  A    between atoms: _121  and  _122
REMARK   49  A    between atoms: _121  and  _124
REMARK   50  A    between atoms: _124  and  _125
REMARK   51  A    between atoms: _128  and  _130
REMARK   52  A    between atoms: _130  and  _131
REMARK   53  A    between atoms: _130  and  _133
REMARK   54  A    between atoms: _133  and  _134
REMARK   55  A    between atoms: _137  and  _139
REMARK   56  A    between atoms: _139  and  _140
REMARK   57  A    between atoms: _142  and  _144
REMARK   58  A    between atoms: _144  and  _145
REMARK   59  A    between atoms: _144  and  _147
REMARK   60  A    between atoms: _147  and  _148
REMARK   61  A    between atoms: _150  and  _152
REMARK   62  A    between atoms: _152  and  _153
REMARK   63  A    between atoms: _152  and  _155
REMARK   64  A    between atoms: _155  and  _156
REMARK   65  A    between atoms: _158  and  _160
REMARK   66  A    between atoms: _160  and  _161
REMARK   67  A    between atoms: _160  and  _163
REMARK   68  A    between atoms: _163  and  _164
REMARK   69  A    between atoms: _174  and  _176
REMARK   70  A    between atoms: _176  and  _177
REMARK   71  A    between atoms: _176  and  _179
REMARK   72  A    between atoms: _179  and  _180
REMARK   73  A    between atoms: _180  and  _181
REMARK   74  A    between atoms: _181  and  _182
REMARK   75  A    between atoms: _191  and  _193
REMARK   76  A    between atoms: _193  and  _194
REMARK   77  A    between atoms: _193  and  _196
REMARK   78  A    between atoms: _196  and  _197
REMARK   79  A    between atoms: _202  and  _203
REMARK   80  A    between atoms: _205  and  _207
REMARK   81  A    between atoms: _207  and  _208
REMARK   82  A    between atoms: _207  and  _210
REMARK   83  A    between atoms: _210  and  _211
REMARK   84  A    between atoms: _213  and  _215
REMARK   85  A    between atoms: _215  and  _216
REMARK   86  A    between atoms: _215  and  _218
REMARK   87  A    between atoms: _218  and  _219
REMARK   88  A    between atoms: _222  and  _224
REMARK   89  A    between atoms: _224  and  _225
REMARK   90  A    between atoms: _227  and  _229
REMARK   91  A    between atoms: _229  and  _230
REMARK   92  A    between atoms: _229  and  _232
REMARK   93  A    between atoms: _232  and  _233
REMARK   94  A    between atoms: _236  and  _238
REMARK   95  A    between atoms: _238  and  _239
REMARK   96  A    between atoms: _238  and  _241
REMARK   97  A    between atoms: _244  and  _246
REMARK   98  A    between atoms: _246  and  _247
REMARK   99  A    between atoms: _250  and  _252
REMARK  100  A    between atoms: _252  and  _253
REMARK  101  A    between atoms: _252  and  _255
REMARK  102  A    between atoms: _255  and  _256
REMARK  103  A    between atoms: _260  and  _261
REMARK  104  A    between atoms: _266  and  _268
REMARK  105  A    between atoms: _268  and  _269
REMARK  106  A    between atoms: _268  and  _271
REMARK  107  A    between atoms: _271  and  _272
REMARK  108  A    between atoms: _278  and  _280
REMARK  109  A    between atoms: _280  and  _281
REMARK  110  A    between atoms: _280  and  _283
REMARK  111  A    between atoms: _283  and  _284
REMARK  112  A    between atoms: _284  and  _285
REMARK  113  A    between atoms: _287  and  _289
REMARK  114  A    between atoms: _289  and  _290
REMARK  115  A    between atoms: _289  and  _292
REMARK  116  A    between atoms: _292  and  _293
REMARK  117  A    between atoms: _296  and  _298
REMARK  118  A    between atoms: _298  and  _299
REMARK  119  A    between atoms: _302  and  _304
REMARK  120  A    between atoms: _304  and  _305
REMARK  121  A    between atoms: _304  and  _307
REMARK  122  A    between atoms: _307  and  _308
REMARK  123  A    between atoms: _308  and  _309
REMARK  124  A    between atoms: _312  and  _314
REMARK  125  A    between atoms: _314  and  _315
REMARK  126  A    between atoms: _314  and  _317
REMARK  127  A    between atoms: _317  and  _318
REMARK  128  A    between atoms: _324  and  _326
REMARK  129  A    between atoms: _326  and  _327
REMARK  130  A    between atoms: _329  and  _331
REMARK  131  A    between atoms: _331  and  _332
REMARK  132  A    between atoms: _331  and  _334
REMARK  133  A    between atoms: _337  and  _339
REMARK  134  A    between atoms: _339  and  _340
REMARK  135  A    between atoms: _339  and  _342
REMARK  136  A    between atoms: _345  and  _347
REMARK  137  A    between atoms: _347  and  _348
REMARK  138  A    between atoms: _350  and  _352
REMARK  139  A    between atoms: _352  and  _353
REMARK  140  A    between atoms: _352  and  _355
REMARK  141  A    between atoms: _355  and  _356
REMARK  142  A    between atoms: _356  and  _357
REMARK  143  A    between atoms: _359  and  _361
REMARK  144  A    between atoms: _361  and  _362
REMARK  145  A    between atoms: _361  and  _364
REMARK  146  A    between atoms: _364  and  _365
REMARK  147  A    between atoms: _371  and  _373
REMARK  148  A    between atoms: _373  and  _374
REMARK  149  A    between atoms: _373  and  _376
REMARK  150  A    between atoms: _376  and  _377
REMARK  151  A    between atoms: _382  and  _383
REMARK  152  A    between atoms: _385  and  _387
REMARK  153  A    between atoms: _387  and  _388
REMARK  154  A    between atoms: _387  and  _390
REMARK  155  A    between atoms: _390  and  _391
REMARK  156  A    between atoms: _394  and  _396
REMARK  157  A    between atoms: _396  and  _397
REMARK  158  A    between atoms: _396  and  _399
REMARK  159  A    between atoms: _402  and  _404
REMARK  160  A    between atoms: _404  and  _405
REMARK  161  A    between atoms: _404  and  _407
REMARK  162  A    between atoms: _407  and  _408
REMARK  163  A    between atoms: _411  and  _413
REMARK  164  A    between atoms: _413  and  _414
REMARK  165  A    between atoms: _413  and  _416
REMARK  166  A    between atoms: _416  and  _417
REMARK  167  A    between atoms: _420  and  _422
REMARK  168  A    between atoms: _422  and  _423
REMARK  169  A    between atoms: _425  and  _427
REMARK  170  A    between atoms: _427  and  _428
REMARK  171  A    between atoms: _431  and  _433
REMARK  172  A    between atoms: _433  and  _434
REMARK  173  A    between atoms: _433  and  _436
REMARK  174  A    between atoms: _436  and  _437
REMARK  175  A    between atoms: _439  and  _441
REMARK  176  A    between atoms: _441  and  _442
REMARK  177  A    between atoms: _441  and  _444
REMARK  178  A    between atoms: _444  and  _445
REMARK  179  A    between atoms: _450  and  _451
REMARK  180  A    between atoms: _453  and  _455
REMARK  181  A    between atoms: _455  and  _456
REMARK  182  A    between atoms: _455  and  _458
REMARK  183  A    between atoms: _458  and  _459
REMARK  184  A    between atoms: _462  and  _464
REMARK  185  A    between atoms: _464  and  _465
REMARK  186  A    between atoms: _464  and  _467
REMARK  187  A    between atoms: _467  and  _468
REMARK  188  A    between atoms: _470  and  _472
REMARK  189  A    between atoms: _472  and  _473
REMARK  190  A    between atoms: _475  and  _477
REMARK  191  A    between atoms: _477  and  _478
REMARK  192  A    between atoms: _477  and  _480
REMARK  193  A    between atoms: _480  and  _481
REMARK  194  A    between atoms: _481  and  _482
REMARK  195  A    between atoms: _482  and  _483
REMARK  196  A    between atoms: _483  and  _484
REMARK  197  A    between atoms: _488  and  _490
REMARK  198  A    between atoms: _490  and  _491
REMARK  199  A    between atoms: _490  and  _493
REMARK  200  A    between atoms: _493  and  _494
REMARK  201  A    between atoms: _500  and  _502
REMARK  202  A    between atoms: _502  and  _503
REMARK  203  A    between atoms: _502  and  _505
REMARK  204  A    between atoms: _505  and  _506
REMARK  205  A    between atoms: _509  and  _511
REMARK  206  A    between atoms: _511  and  _512
REMARK  207  A    between atoms: _511  and  _514
REMARK  208  A    between atoms: _514  and  _515
REMARK  209  A    between atoms: _520  and  _521
REMARK  210  A    between atoms: _523  and  _525
REMARK  211  A    between atoms: _525  and  _526
REMARK  212  A    between atoms: _529  and  _531
REMARK  213  A    between atoms: _531  and  _532
REMARK  214  A    between atoms: _531  and  _534
REMARK  215  A    between atoms: _534  and  _535
REMARK  216  A    between atoms: _538  and  _540
REMARK  217  A    between atoms: _540  and  _541
REMARK  218  A    between atoms: _540  and  _543
REMARK  219  A    between atoms: _543  and  _544
REMARK  220  A    between atoms: _549  and  _551
REMARK  221  A    between atoms: _551  and  _552
REMARK  222  A    between atoms: _555  and  _557
REMARK  223  A    between atoms: _557  and  _558
REMARK  224  A    between atoms: _557  and  _560
REMARK  225  A    between atoms: _560  and  _561
REMARK  226  A    between atoms: _561  and  _562
REMARK  227  A    between atoms: _564  and  _566
REMARK  228  A    between atoms: _566  and  _567
REMARK  229  A    between atoms: _566  and  _569
REMARK  230  A    between atoms: _569  and  _570
REMARK  231  A    between atoms: _573  and  _575
REMARK  232  A    between atoms: _575  and  _576
REMARK  233  A    between atoms: _575  and  _578
REMARK  234  A    between atoms: _578  and  _579
REMARK  235  A    between atoms: _582  and  _584
REMARK  236  A    between atoms: _584  and  _585
REMARK  237  A    between atoms: _588  and  _590
REMARK  238  A    between atoms: _590  and  _591
REMARK  239  A    between atoms: _590  and  _593
REMARK  240  A    between atoms: _593  and  _594
REMARK  241  A    between atoms: _597  and  _599
REMARK  242  A    between atoms: _599  and  _600
REMARK  243  A    between atoms: _602  and  _604
REMARK  244  A    between atoms: _604  and  _605
REMARK  245  A    between atoms: _608  and  _610
REMARK  246  A    between atoms: _610  and  _611
REMARK  247  A    between atoms: _610  and  _613
REMARK  248  A    between atoms: _613  and  _614
REMARK  249  A    between atoms: _617  and  _619
REMARK  250  A    between atoms: _619  and  _620
REMARK  251  A    between atoms: _619  and  _622
REMARK  252  A    between atoms: _622  and  _623
REMARK  253  A    between atoms: _626  and  _628
REMARK  254  A    between atoms: _628  and  _629
REMARK  255  A    between atoms: _628  and  _631
REMARK  256  A    between atoms: _631  and  _632
REMARK  257  A    between atoms: _632  and  _633
REMARK  258  A    between atoms: _633  and  _634
REMARK  259  A    between atoms: _643  and  _645
REMARK  260  A    between atoms: _645  and  _646
REMARK  261  A    between atoms: _645  and  _648
REMARK  262  A    between atoms: _648  and  _649
REMARK  263  A    between atoms: _649  and  _650
REMARK  264  A    between atoms: _650  and  _651
REMARK  265  A    between atoms: _651  and  _652
REMARK  266  A    between atoms: _656  and  _658
REMARK  267  A    between atoms: _658  and  _659
REMARK  268  A    between atoms: _658  and  _661
REMARK  269  A    between atoms: _661  and  _662
REMARK  270  A    between atoms: _667  and  _669
REMARK  271  A    between atoms: _669  and  _670
REMARK  272  A    between atoms: _669  and  _672
REMARK  273  A    between atoms: _672  and  _673
REMARK  274  A    between atoms: _673  and  _674
REMARK  275  A    between atoms: _677  and  _679
REMARK  276  A    between atoms: _679  and  _680
REMARK  277  A    between atoms: _679  and  _682
REMARK  278  A    between atoms: _682  and  _683
REMARK  279  A    between atoms: _686  and  _688
REMARK  280  A    between atoms: _688  and  _689
REMARK  281  A    between atoms: _688  and  _691
REMARK  282  A    between atoms: _691  and  _692
REMARK                            x       y       z     vdW  Elec       q    Type
REMARK                         _______ _______ _______ _____ _____    ______ ____
ROOT
ATOM      1  O   HOH     1     -50.211 -22.305 -33.160  0.00  0.00    +0.000 OA
ENDROOT
TORSDOF 0
