REMARK  Name = ../refined-set-2016/4z1j/4z1j_pocket.pdb
REMARK  159 active torsions:
REMARK  status: ('A' for Active; 'I' for Inactive)
REMARK    1  A    between atoms: _1  and  _3
REMARK    2  A    between atoms: _3  and  _4
REMARK    3  A    between atoms: _3  and  _6
REMARK    4  A    between atoms: _6  and  _7
REMARK    5  A    between atoms: _17  and  _19
REMARK    6  A    between atoms: _19  and  _20
REMARK    7  A    between atoms: _19  and  _22
REMARK    8  A    between atoms: _22  and  _23
REMARK    9  A    between atoms: _28  and  _29
REMARK   10  A    between atoms: _31  and  _33
REMARK   11  A    between atoms: _33  and  _34
REMARK   12  A    between atoms: _33  and  _36
REMARK   13  A    between atoms: _36  and  _37
REMARK   14  A    between atoms: _40  and  _41
REMARK   15  A    between atoms: _46  and  _48
REMARK   16  A    between atoms: _48  and  _49
REMARK   17  A    between atoms: _48  and  _51
REMARK   18  A    between atoms: _51  and  _52
REMARK   19  A    between atoms: _57  and  _59
REMARK   20  A    between atoms: _59  and  _60
REMARK   21  A    between atoms: _63  and  _65
REMARK   22  A    between atoms: _65  and  _66
REMARK   23  A    between atoms: _65  and  _68
REMARK   24  A    between atoms: _68  and  _69
REMARK   25  A    between atoms: _74  and  _76
REMARK   26  A    between atoms: _76  and  _77
REMARK   27  A    between atoms: _76  and  _79
REMARK   28  A    between atoms: _79  and  _80
REMARK   29  A    between atoms: _83  and  _85
REMARK   30  A    between atoms: _85  and  _86
REMARK   31  A    between atoms: _85  and  _88
REMARK   32  A    between atoms: _88  and  _89
REMARK   33  A    between atoms: _89  and  _90
REMARK   34  A    between atoms: _95  and  _97
REMARK   35  A    between atoms: _97  and  _98
REMARK   36  A    between atoms: _97  and  _100
REMARK   37  A    between atoms: _100  and  _101
REMARK   38  A    between atoms: _107  and  _109
REMARK   39  A    between atoms: _120  and  _123
REMARK   40  A    between atoms: _123  and  _124
REMARK   41  A    between atoms: _132  and  _133
REMARK   42  A    between atoms: _141  and  _143
REMARK   43  A    between atoms: _143  and  _144
REMARK   44  A    between atoms: _143  and  _146
REMARK   45  A    between atoms: _146  and  _147
REMARK   46  A    between atoms: _147  and  _148
REMARK   47  A    between atoms: _151  and  _153
REMARK   48  A    between atoms: _153  and  _154
REMARK   49  A    between atoms: _153  and  _156
REMARK   50  A    between atoms: _156  and  _157
REMARK   51  A    between atoms: _162  and  _164
REMARK   52  A    between atoms: _164  and  _165
REMARK   53  A    between atoms: _164  and  _167
REMARK   54  A    between atoms: _167  and  _168
REMARK   55  A    between atoms: _168  and  _169
REMARK   56  A    between atoms: _172  and  _174
REMARK   57  A    between atoms: _174  and  _175
REMARK   58  A    between atoms: _174  and  _177
REMARK   59  A    between atoms: _177  and  _178
REMARK   60  A    between atoms: _181  and  _183
REMARK   61  A    between atoms: _183  and  _184
REMARK   62  A    between atoms: _183  and  _186
REMARK   63  A    between atoms: _186  and  _187
REMARK   64  A    between atoms: _188  and  ZN_438
REMARK   65  A    between atoms: _192  and  _194
REMARK   66  A    between atoms: _194  and  _195
REMARK   67  A    between atoms: _194  and  _197
REMARK   68  A    between atoms: _197  and  _198
REMARK   69  A    between atoms: _201  and  _203
REMARK   70  A    between atoms: _203  and  _204
REMARK   71  A    between atoms: _203  and  _206
REMARK   72  A    between atoms: _209  and  _211
REMARK   73  A    between atoms: _211  and  _212
REMARK   74  A    between atoms: _211  and  _214
REMARK   75  A    between atoms: _214  and  _215
REMARK   76  A    between atoms: _220  and  _222
REMARK   77  A    between atoms: _222  and  _223
REMARK   78  A    between atoms: _222  and  _225
REMARK   79  A    between atoms: _225  and  _226
REMARK   80  A    between atoms: _232  and  _234
REMARK   81  A    between atoms: _234  and  _235
REMARK   82  A    between atoms: _237  and  _239
REMARK   83  A    between atoms: _239  and  _240
REMARK   84  A    between atoms: _239  and  _242
REMARK   85  A    between atoms: _242  and  _243
REMARK   86  A    between atoms: _243  and  _244
REMARK   87  A    between atoms: _244  and  _245
REMARK   88  A    between atoms: _245  and  _246
REMARK   89  A    between atoms: _250  and  _252
REMARK   90  A    between atoms: _252  and  _253
REMARK   91  A    between atoms: _252  and  _255
REMARK   92  A    between atoms: _258  and  _260
REMARK   93  A    between atoms: _260  and  _261
REMARK   94  A    between atoms: _260  and  _263
REMARK   95  A    between atoms: _263  and  _264
REMARK   96  A    between atoms: _264  and  _265
REMARK   97  A    between atoms: _270  and  _272
REMARK   98  A    between atoms: _272  and  _273
REMARK   99  A    between atoms: _272  and  _275
REMARK  100  A    between atoms: _275  and  _276
REMARK  101  A    between atoms: _279  and  _281
REMARK  102  A    between atoms: _281  and  _282
REMARK  103  A    between atoms: _285  and  _287
REMARK  104  A    between atoms: _287  and  _288
REMARK  105  A    between atoms: _287  and  _290
REMARK  106  A    between atoms: _293  and  _295
REMARK  107  A    between atoms: _295  and  _296
REMARK  108  A    between atoms: _295  and  _298
REMARK  109  A    between atoms: _298  and  _299
REMARK  110  A    between atoms: _302  and  _304
REMARK  111  A    between atoms: _304  and  _305
REMARK  112  A    between atoms: _307  and  _309
REMARK  113  A    between atoms: _309  and  _310
REMARK  114  A    between atoms: _312  and  _314
REMARK  115  A    between atoms: _314  and  _315
REMARK  116  A    between atoms: _314  and  _317
REMARK  117  A    between atoms: _317  and  _318
REMARK  118  A    between atoms: _320  and  _322
REMARK  119  A    between atoms: _322  and  _323
REMARK  120  A    between atoms: _322  and  _325
REMARK  121  A    between atoms: _325  and  _326
REMARK  122  A    between atoms: _329  and  _331
REMARK  123  A    between atoms: _331  and  _332
REMARK  124  A    between atoms: _331  and  _334
REMARK  125  A    between atoms: _334  and  _335
REMARK  126  A    between atoms: _338  and  _340
REMARK  127  A    between atoms: _340  and  _341
REMARK  128  A    between atoms: _340  and  _343
REMARK  129  A    between atoms: _343  and  _344
REMARK  130  A    between atoms: _348  and  _349
REMARK  131  A    between atoms: _355  and  _356
REMARK  132  A    between atoms: _361  and  _363
REMARK  133  A    between atoms: _363  and  _364
REMARK  134  A    between atoms: _363  and  _366
REMARK  135  A    between atoms: _366  and  _367
REMARK  136  A    between atoms: _370  and  _372
REMARK  137  A    between atoms: _372  and  _373
REMARK  138  A    between atoms: _372  and  _375
REMARK  139  A    between atoms: _375  and  _376
REMARK  140  A    between atoms: _379  and  _381
REMARK  141  A    between atoms: _381  and  _382
REMARK  142  A    between atoms: _381  and  _384
REMARK  143  A    between atoms: _386  and  _388
REMARK  144  A    between atoms: _388  and  _389
REMARK  145  A    between atoms: _388  and  _391
REMARK  146  A    between atoms: _394  and  _396
REMARK  147  A    between atoms: _396  and  _397
REMARK  148  A    between atoms: _396  and  _399
REMARK  149  A    between atoms: _399  and  _400
REMARK  150  A    between atoms: _410  and  _412
REMARK  151  A    between atoms: _412  and  _413
REMARK  152  A    between atoms: _412  and  _415
REMARK  153  A    between atoms: _415  and  _416
REMARK  154  A    between atoms: _421  and  _423
REMARK  155  A    between atoms: _423  and  _424
REMARK  156  A    between atoms: _423  and  _426
REMARK  157  A    between atoms: _426  and  _427
REMARK  158  A    between atoms: _427  and  _428
REMARK  159  A    between atoms: _428  and  _429
REMARK                            x       y       z     vdW  Elec       q    Type
REMARK                         _______ _______ _______ _____ _____    ______ ____
ROOT
ATOM      1  CG  TRP A   1      26.888   1.762  12.129  0.00  0.00    -0.002 A 
ATOM      2  CD2 TRP A   1      25.506   1.296  12.083  0.00  0.00    +0.013 A 
ATOM      3  CE3 TRP A   1      24.890   0.080  12.312  0.00  0.00    +0.001 A 
ATOM      4  CZ3 TRP A   1      23.502   0.005  12.159  0.00  0.00    +0.000 A 
ATOM      5  CH2 TRP A   1      22.740   1.134  11.802  0.00  0.00    +0.001 A 
ATOM      6  CZ2 TRP A   1      23.319   2.371  11.572  0.00  0.00    +0.017 A 
ATOM      7  CE2 TRP A   1      24.698   2.453  11.723  0.00  0.00    +0.056 A 
ATOM      8  NE1 TRP A   1      25.561   3.501  11.570  0.00  0.00    -0.352 N 
ATOM      9  HE1 TRP A   1      25.278   4.468  11.311  0.00  0.00    +0.166 HD
ATOM     10  CD1 TRP A   1      26.841   3.106  11.803  0.00  0.00    +0.068 A 
ENDROOT
BRANCH   1  11
ATOM     11  CB  TRP A   1      28.088   0.938  12.475  0.00  0.00    +0.053 C 
BRANCH  11  12
ATOM     12  CA  TRP A   1      28.717   0.233  11.291  0.00  0.00    +0.137 C 
BRANCH  12  13
ATOM     13  N   TRP A   1      29.381   1.201  10.453  0.00  0.00    -0.239 NA
ATOM     14  H   TRP A   1      29.147   2.210  10.547  0.00  0.00    +0.142 HD
ENDBRANCH  12  13
BRANCH  12  15
ATOM     15  C   TRP A   1      27.705  -0.529  10.500  0.00  0.00    +0.224 C 
ATOM     16  O   TRP A   1      27.168  -0.050   9.503  0.00  0.00    -0.287 OA
ENDBRANCH  12  15
ENDBRANCH  11  12
ENDBRANCH   1  11
TORSDOF 4
REMARK  Name = ../refined-set-2016/4z1j/4z1j_pocket.pdb
REMARK  159 active torsions:
REMARK  status: ('A' for Active; 'I' for Inactive)
REMARK    1  A    between atoms: _1  and  _3
REMARK    2  A    between atoms: _3  and  _4
REMARK    3  A    between atoms: _3  and  _6
REMARK    4  A    between atoms: _6  and  _7
REMARK    5  A    between atoms: _17  and  _19
REMARK    6  A    between atoms: _19  and  _20
REMARK    7  A    between atoms: _19  and  _22
REMARK    8  A    between atoms: _22  and  _23
REMARK    9  A    between atoms: _28  and  _29
REMARK   10  A    between atoms: _31  and  _33
REMARK   11  A    between atoms: _33  and  _34
REMARK   12  A    between atoms: _33  and  _36
REMARK   13  A    between atoms: _36  and  _37
REMARK   14  A    between atoms: _40  and  _41
REMARK   15  A    between atoms: _46  and  _48
REMARK   16  A    between atoms: _48  and  _49
REMARK   17  A    between atoms: _48  and  _51
REMARK   18  A    between atoms: _51  and  _52
REMARK   19  A    between atoms: _57  and  _59
REMARK   20  A    between atoms: _59  and  _60
REMARK   21  A    between atoms: _63  and  _65
REMARK   22  A    between atoms: _65  and  _66
REMARK   23  A    between atoms: _65  and  _68
REMARK   24  A    between atoms: _68  and  _69
REMARK   25  A    between atoms: _74  and  _76
REMARK   26  A    between atoms: _76  and  _77
REMARK   27  A    between atoms: _76  and  _79
REMARK   28  A    between atoms: _79  and  _80
REMARK   29  A    between atoms: _83  and  _85
REMARK   30  A    between atoms: _85  and  _86
REMARK   31  A    between atoms: _85  and  _88
REMARK   32  A    between atoms: _88  and  _89
REMARK   33  A    between atoms: _89  and  _90
REMARK   34  A    between atoms: _95  and  _97
REMARK   35  A    between atoms: _97  and  _98
REMARK   36  A    between atoms: _97  and  _100
REMARK   37  A    between atoms: _100  and  _101
REMARK   38  A    between atoms: _107  and  _109
REMARK   39  A    between atoms: _120  and  _123
REMARK   40  A    between atoms: _123  and  _124
REMARK   41  A    between atoms: _132  and  _133
REMARK   42  A    between atoms: _141  and  _143
REMARK   43  A    between atoms: _143  and  _144
REMARK   44  A    between atoms: _143  and  _146
REMARK   45  A    between atoms: _146  and  _147
REMARK   46  A    between atoms: _147  and  _148
REMARK   47  A    between atoms: _151  and  _153
REMARK   48  A    between atoms: _153  and  _154
REMARK   49  A    between atoms: _153  and  _156
REMARK   50  A    between atoms: _156  and  _157
REMARK   51  A    between atoms: _162  and  _164
REMARK   52  A    between atoms: _164  and  _165
REMARK   53  A    between atoms: _164  and  _167
REMARK   54  A    between atoms: _167  and  _168
REMARK   55  A    between atoms: _168  and  _169
REMARK   56  A    between atoms: _172  and  _174
REMARK   57  A    between atoms: _174  and  _175
REMARK   58  A    between atoms: _174  and  _177
REMARK   59  A    between atoms: _177  and  _178
REMARK   60  A    between atoms: _181  and  _183
REMARK   61  A    between atoms: _183  and  _184
REMARK   62  A    between atoms: _183  and  _186
REMARK   63  A    between atoms: _186  and  _187
REMARK   64  A    between atoms: _188  and  ZN_438
REMARK   65  A    between atoms: _192  and  _194
REMARK   66  A    between atoms: _194  and  _195
REMARK   67  A    between atoms: _194  and  _197
REMARK   68  A    between atoms: _197  and  _198
REMARK   69  A    between atoms: _201  and  _203
REMARK   70  A    between atoms: _203  and  _204
REMARK   71  A    between atoms: _203  and  _206
REMARK   72  A    between atoms: _209  and  _211
REMARK   73  A    between atoms: _211  and  _212
REMARK   74  A    between atoms: _211  and  _214
REMARK   75  A    between atoms: _214  and  _215
REMARK   76  A    between atoms: _220  and  _222
REMARK   77  A    between atoms: _222  and  _223
REMARK   78  A    between atoms: _222  and  _225
REMARK   79  A    between atoms: _225  and  _226
REMARK   80  A    between atoms: _232  and  _234
REMARK   81  A    between atoms: _234  and  _235
REMARK   82  A    between atoms: _237  and  _239
REMARK   83  A    between atoms: _239  and  _240
REMARK   84  A    between atoms: _239  and  _242
REMARK   85  A    between atoms: _242  and  _243
REMARK   86  A    between atoms: _243  and  _244
REMARK   87  A    between atoms: _244  and  _245
REMARK   88  A    between atoms: _245  and  _246
REMARK   89  A    between atoms: _250  and  _252
REMARK   90  A    between atoms: _252  and  _253
REMARK   91  A    between atoms: _252  and  _255
REMARK   92  A    between atoms: _258  and  _260
REMARK   93  A    between atoms: _260  and  _261
REMARK   94  A    between atoms: _260  and  _263
REMARK   95  A    between atoms: _263  and  _264
REMARK   96  A    between atoms: _264  and  _265
REMARK   97  A    between atoms: _270  and  _272
REMARK   98  A    between atoms: _272  and  _273
REMARK   99  A    between atoms: _272  and  _275
REMARK  100  A    between atoms: _275  and  _276
REMARK  101  A    between atoms: _279  and  _281
REMARK  102  A    between atoms: _281  and  _282
REMARK  103  A    between atoms: _285  and  _287
REMARK  104  A    between atoms: _287  and  _288
REMARK  105  A    between atoms: _287  and  _290
REMARK  106  A    between atoms: _293  and  _295
REMARK  107  A    between atoms: _295  and  _296
REMARK  108  A    between atoms: _295  and  _298
REMARK  109  A    between atoms: _298  and  _299
REMARK  110  A    between atoms: _302  and  _304
REMARK  111  A    between atoms: _304  and  _305
REMARK  112  A    between atoms: _307  and  _309
REMARK  113  A    between atoms: _309  and  _310
REMARK  114  A    between atoms: _312  and  _314
REMARK  115  A    between atoms: _314  and  _315
REMARK  116  A    between atoms: _314  and  _317
REMARK  117  A    between atoms: _317  and  _318
REMARK  118  A    between atoms: _320  and  _322
REMARK  119  A    between atoms: _322  and  _323
REMARK  120  A    between atoms: _322  and  _325
REMARK  121  A    between atoms: _325  and  _326
REMARK  122  A    between atoms: _329  and  _331
REMARK  123  A    between atoms: _331  and  _332
REMARK  124  A    between atoms: _331  and  _334
REMARK  125  A    between atoms: _334  and  _335
REMARK  126  A    between atoms: _338  and  _340
REMARK  127  A    between atoms: _340  and  _341
REMARK  128  A    between atoms: _340  and  _343
REMARK  129  A    between atoms: _343  and  _344
REMARK  130  A    between atoms: _348  and  _349
REMARK  131  A    between atoms: _355  and  _356
REMARK  132  A    between atoms: _361  and  _363
REMARK  133  A    between atoms: _363  and  _364
REMARK  134  A    between atoms: _363  and  _366
REMARK  135  A    between atoms: _366  and  _367
REMARK  136  A    between atoms: _370  and  _372
REMARK  137  A    between atoms: _372  and  _373
REMARK  138  A    between atoms: _372  and  _375
REMARK  139  A    between atoms: _375  and  _376
REMARK  140  A    between atoms: _379  and  _381
REMARK  141  A    between atoms: _381  and  _382
REMARK  142  A    between atoms: _381  and  _384
REMARK  143  A    between atoms: _386  and  _388
REMARK  144  A    between atoms: _388  and  _389
REMARK  145  A    between atoms: _388  and  _391
REMARK  146  A    between atoms: _394  and  _396
REMARK  147  A    between atoms: _396  and  _397
REMARK  148  A    between atoms: _396  and  _399
REMARK  149  A    between atoms: _399  and  _400
REMARK  150  A    between atoms: _410  and  _412
REMARK  151  A    between atoms: _412  and  _413
REMARK  152  A    between atoms: _412  and  _415
REMARK  153  A    between atoms: _415  and  _416
REMARK  154  A    between atoms: _421  and  _423
REMARK  155  A    between atoms: _423  and  _424
REMARK  156  A    between atoms: _423  and  _426
REMARK  157  A    between atoms: _426  and  _427
REMARK  158  A    between atoms: _427  and  _428
REMARK  159  A    between atoms: _428  and  _429
REMARK                            x       y       z     vdW  Elec       q    Type
REMARK                         _______ _______ _______ _____ _____    ______ ____
ROOT
ATOM      1  CG  TYR A   1      23.000  -5.271  11.817  0.00  0.00    -0.020 A 
ATOM      2  CD2 TYR A   1      22.598  -5.263  13.160  0.00  0.00    -0.001 A 
ATOM      3  CE2 TYR A   1      21.755  -4.284  13.645  0.00  0.00    +0.036 A 
ATOM      4  CZ  TYR A   1      21.301  -3.284  12.824  0.00  0.00    +0.134 A 
ATOM      5  CE1 TYR A   1      21.681  -3.290  11.496  0.00  0.00    +0.036 A 
ATOM      6  CD1 TYR A   1      22.531  -4.265  11.009  0.00  0.00    -0.001 A 
ENDROOT
BRANCH   4   7
ATOM      7  OH  TYR A   1      20.447  -2.307  13.293  0.00  0.00    -0.506 OA
ATOM      8  HH  TYR A   1      20.281  -2.451  14.258  0.00  0.00    +0.292 HD
ENDBRANCH   4   7
BRANCH   1   9
ATOM      9  CB  TYR A   1      23.902  -6.381  11.282  0.00  0.00    +0.051 C 
BRANCH   9  10
ATOM     10  CA  TYR A   1      25.391  -6.053  11.487  0.00  0.00    +0.137 C 
BRANCH  10  11
ATOM     11  N   TYR A   1      25.791  -4.881  10.700  0.00  0.00    -0.239 NA
ATOM     12  H   TYR A   1      25.846  -4.952   9.664  0.00  0.00    +0.142 HD
ENDBRANCH  10  11
BRANCH  10  13
ATOM     13  C   TYR A   1      26.300  -7.289  11.318  0.00  0.00    +0.224 C 
ATOM     14  O   TYR A   1      26.034  -8.335  11.928  0.00  0.00    -0.287 OA
ENDBRANCH  10  13
ENDBRANCH   9  10
ENDBRANCH   1   9
TORSDOF 5
REMARK  Name = ../refined-set-2016/4z1j/4z1j_pocket.pdb
REMARK  159 active torsions:
REMARK  status: ('A' for Active; 'I' for Inactive)
REMARK    1  A    between atoms: _1  and  _3
REMARK    2  A    between atoms: _3  and  _4
REMARK    3  A    between atoms: _3  and  _6
REMARK    4  A    between atoms: _6  and  _7
REMARK    5  A    between atoms: _17  and  _19
REMARK    6  A    between atoms: _19  and  _20
REMARK    7  A    between atoms: _19  and  _22
REMARK    8  A    between atoms: _22  and  _23
REMARK    9  A    between atoms: _28  and  _29
REMARK   10  A    between atoms: _31  and  _33
REMARK   11  A    between atoms: _33  and  _34
REMARK   12  A    between atoms: _33  and  _36
REMARK   13  A    between atoms: _36  and  _37
REMARK   14  A    between atoms: _40  and  _41
REMARK   15  A    between atoms: _46  and  _48
REMARK   16  A    between atoms: _48  and  _49
REMARK   17  A    between atoms: _48  and  _51
REMARK   18  A    between atoms: _51  and  _52
REMARK   19  A    between atoms: _57  and  _59
REMARK   20  A    between atoms: _59  and  _60
REMARK   21  A    between atoms: _63  and  _65
REMARK   22  A    between atoms: _65  and  _66
REMARK   23  A    between atoms: _65  and  _68
REMARK   24  A    between atoms: _68  and  _69
REMARK   25  A    between atoms: _74  and  _76
REMARK   26  A    between atoms: _76  and  _77
REMARK   27  A    between atoms: _76  and  _79
REMARK   28  A    between atoms: _79  and  _80
REMARK   29  A    between atoms: _83  and  _85
REMARK   30  A    between atoms: _85  and  _86
REMARK   31  A    between atoms: _85  and  _88
REMARK   32  A    between atoms: _88  and  _89
REMARK   33  A    between atoms: _89  and  _90
REMARK   34  A    between atoms: _95  and  _97
REMARK   35  A    between atoms: _97  and  _98
REMARK   36  A    between atoms: _97  and  _100
REMARK   37  A    between atoms: _100  and  _101
REMARK   38  A    between atoms: _107  and  _109
REMARK   39  A    between atoms: _120  and  _123
REMARK   40  A    between atoms: _123  and  _124
REMARK   41  A    between atoms: _132  and  _133
REMARK   42  A    between atoms: _141  and  _143
REMARK   43  A    between atoms: _143  and  _144
REMARK   44  A    between atoms: _143  and  _146
REMARK   45  A    between atoms: _146  and  _147
REMARK   46  A    between atoms: _147  and  _148
REMARK   47  A    between atoms: _151  and  _153
REMARK   48  A    between atoms: _153  and  _154
REMARK   49  A    between atoms: _153  and  _156
REMARK   50  A    between atoms: _156  and  _157
REMARK   51  A    between atoms: _162  and  _164
REMARK   52  A    between atoms: _164  and  _165
REMARK   53  A    between atoms: _164  and  _167
REMARK   54  A    between atoms: _167  and  _168
REMARK   55  A    between atoms: _168  and  _169
REMARK   56  A    between atoms: _172  and  _174
REMARK   57  A    between atoms: _174  and  _175
REMARK   58  A    between atoms: _174  and  _177
REMARK   59  A    between atoms: _177  and  _178
REMARK   60  A    between atoms: _181  and  _183
REMARK   61  A    between atoms: _183  and  _184
REMARK   62  A    between atoms: _183  and  _186
REMARK   63  A    between atoms: _186  and  _187
REMARK   64  A    between atoms: _188  and  ZN_438
REMARK   65  A    between atoms: _192  and  _194
REMARK   66  A    between atoms: _194  and  _195
REMARK   67  A    between atoms: _194  and  _197
REMARK   68  A    between atoms: _197  and  _198
REMARK   69  A    between atoms: _201  and  _203
REMARK   70  A    between atoms: _203  and  _204
REMARK   71  A    between atoms: _203  and  _206
REMARK   72  A    between atoms: _209  and  _211
REMARK   73  A    between atoms: _211  and  _212
REMARK   74  A    between atoms: _211  and  _214
REMARK   75  A    between atoms: _214  and  _215
REMARK   76  A    between atoms: _220  and  _222
REMARK   77  A    between atoms: _222  and  _223
REMARK   78  A    between atoms: _222  and  _225
REMARK   79  A    between atoms: _225  and  _226
REMARK   80  A    between atoms: _232  and  _234
REMARK   81  A    between atoms: _234  and  _235
REMARK   82  A    between atoms: _237  and  _239
REMARK   83  A    between atoms: _239  and  _240
REMARK   84  A    between atoms: _239  and  _242
REMARK   85  A    between atoms: _242  and  _243
REMARK   86  A    between atoms: _243  and  _244
REMARK   87  A    between atoms: _244  and  _245
REMARK   88  A    between atoms: _245  and  _246
REMARK   89  A    between atoms: _250  and  _252
REMARK   90  A    between atoms: _252  and  _253
REMARK   91  A    between atoms: _252  and  _255
REMARK   92  A    between atoms: _258  and  _260
REMARK   93  A    between atoms: _260  and  _261
REMARK   94  A    between atoms: _260  and  _263
REMARK   95  A    between atoms: _263  and  _264
REMARK   96  A    between atoms: _264  and  _265
REMARK   97  A    between atoms: _270  and  _272
REMARK   98  A    between atoms: _272  and  _273
REMARK   99  A    between atoms: _272  and  _275
REMARK  100  A    between atoms: _275  and  _276
REMARK  101  A    between atoms: _279  and  _281
REMARK  102  A    between atoms: _281  and  _282
REMARK  103  A    between atoms: _285  and  _287
REMARK  104  A    between atoms: _287  and  _288
REMARK  105  A    between atoms: _287  and  _290
REMARK  106  A    between atoms: _293  and  _295
REMARK  107  A    between atoms: _295  and  _296
REMARK  108  A    between atoms: _295  and  _298
REMARK  109  A    between atoms: _298  and  _299
REMARK  110  A    between atoms: _302  and  _304
REMARK  111  A    between atoms: _304  and  _305
REMARK  112  A    between atoms: _307  and  _309
REMARK  113  A    between atoms: _309  and  _310
REMARK  114  A    between atoms: _312  and  _314
REMARK  115  A    between atoms: _314  and  _315
REMARK  116  A    between atoms: _314  and  _317
REMARK  117  A    between atoms: _317  and  _318
REMARK  118  A    between atoms: _320  and  _322
REMARK  119  A    between atoms: _322  and  _323
REMARK  120  A    between atoms: _322  and  _325
REMARK  121  A    between atoms: _325  and  _326
REMARK  122  A    between atoms: _329  and  _331
REMARK  123  A    between atoms: _331  and  _332
REMARK  124  A    between atoms: _331  and  _334
REMARK  125  A    between atoms: _334  and  _335
REMARK  126  A    between atoms: _338  and  _340
REMARK  127  A    between atoms: _340  and  _341
REMARK  128  A    between atoms: _340  and  _343
REMARK  129  A    between atoms: _343  and  _344
REMARK  130  A    between atoms: _348  and  _349
REMARK  131  A    between atoms: _355  and  _356
REMARK  132  A    between atoms: _361  and  _363
REMARK  133  A    between atoms: _363  and  _364
REMARK  134  A    between atoms: _363  and  _366
REMARK  135  A    between atoms: _366  and  _367
REMARK  136  A    between atoms: _370  and  _372
REMARK  137  A    between atoms: _372  and  _373
REMARK  138  A    between atoms: _372  and  _375
REMARK  139  A    between atoms: _375  and  _376
REMARK  140  A    between atoms: _379  and  _381
REMARK  141  A    between atoms: _381  and  _382
REMARK  142  A    between atoms: _381  and  _384
REMARK  143  A    between atoms: _386  and  _388
REMARK  144  A    between atoms: _388  and  _389
REMARK  145  A    between atoms: _388  and  _391
REMARK  146  A    between atoms: _394  and  _396
REMARK  147  A    between atoms: _396  and  _397
REMARK  148  A    between atoms: _396  and  _399
REMARK  149  A    between atoms: _399  and  _400
REMARK  150  A    between atoms: _410  and  _412
REMARK  151  A    between atoms: _412  and  _413
REMARK  152  A    between atoms: _412  and  _415
REMARK  153  A    between atoms: _415  and  _416
REMARK  154  A    between atoms: _421  and  _423
REMARK  155  A    between atoms: _423  and  _424
REMARK  156  A    between atoms: _423  and  _426
REMARK  157  A    between atoms: _426  and  _427
REMARK  158  A    between atoms: _427  and  _428
REMARK  159  A    between atoms: _428  and  _429
REMARK                            x       y       z     vdW  Elec       q    Type
REMARK                         _______ _______ _______ _____ _____    ______ ____
ROOT
ATOM      1  C   SER A   1      18.738  -1.413  23.219  0.00  0.00    +0.244 C 
ATOM      2  N   PRO A   2      18.081  -2.543  22.950  0.00  0.00    -0.273 N 
ATOM      3  CA  PRO A   2      16.923  -3.090  23.668  0.00  0.00    +0.140 C 
ATOM      4  CB  PRO A   2      16.419  -4.125  22.651  0.00  0.00    +0.030 C 
ATOM      5  CG  PRO A   2      17.682  -4.684  22.084  0.00  0.00    +0.024 C 
ATOM      6  CD  PRO A   2      18.553  -3.457  21.899  0.00  0.00    +0.094 C 
ATOM      7  O   SER A   1      19.686  -1.048  22.524  0.00  0.00    -0.273 OA
ENDROOT
BRANCH   3   8
ATOM      8  C   PRO A   2      17.352  -3.755  24.974  0.00  0.00    +0.227 C 
ATOM      9  O   PRO A   2      18.538  -3.771  25.314  0.00  0.00    -0.286 OA
ENDBRANCH   3   8
BRANCH   1  10
ATOM     10  CA  SER A   1      18.209  -0.521  24.350  0.00  0.00    +0.175 C 
BRANCH  10  11
ATOM     11  N   SER A   1      19.281   0.343  24.841  0.00  0.00    -0.236 NA
ATOM     12  H   SER A   1      19.782   0.942  24.154  0.00  0.00    +0.142 HD
ENDBRANCH  10  11
BRANCH  10  13
ATOM     13  CB  SER A   1      17.065   0.336  23.812  0.00  0.00    +0.163 C 
BRANCH  13  14
ATOM     14  OG  SER A   1      16.455   1.067  24.873  0.00  0.00    -0.380 OA
ATOM     15  H   SER A   1      16.098   0.434  25.545  0.00  0.00    +0.211 HD
ENDBRANCH  13  14
ENDBRANCH  10  13
ENDBRANCH   1  10
TORSDOF 5
REMARK  Name = ../refined-set-2016/4z1j/4z1j_pocket.pdb
REMARK  159 active torsions:
REMARK  status: ('A' for Active; 'I' for Inactive)
REMARK    1  A    between atoms: _1  and  _3
REMARK    2  A    between atoms: _3  and  _4
REMARK    3  A    between atoms: _3  and  _6
REMARK    4  A    between atoms: _6  and  _7
REMARK    5  A    between atoms: _17  and  _19
REMARK    6  A    between atoms: _19  and  _20
REMARK    7  A    between atoms: _19  and  _22
REMARK    8  A    between atoms: _22  and  _23
REMARK    9  A    between atoms: _28  and  _29
REMARK   10  A    between atoms: _31  and  _33
REMARK   11  A    between atoms: _33  and  _34
REMARK   12  A    between atoms: _33  and  _36
REMARK   13  A    between atoms: _36  and  _37
REMARK   14  A    between atoms: _40  and  _41
REMARK   15  A    between atoms: _46  and  _48
REMARK   16  A    between atoms: _48  and  _49
REMARK   17  A    between atoms: _48  and  _51
REMARK   18  A    between atoms: _51  and  _52
REMARK   19  A    between atoms: _57  and  _59
REMARK   20  A    between atoms: _59  and  _60
REMARK   21  A    between atoms: _63  and  _65
REMARK   22  A    between atoms: _65  and  _66
REMARK   23  A    between atoms: _65  and  _68
REMARK   24  A    between atoms: _68  and  _69
REMARK   25  A    between atoms: _74  and  _76
REMARK   26  A    between atoms: _76  and  _77
REMARK   27  A    between atoms: _76  and  _79
REMARK   28  A    between atoms: _79  and  _80
REMARK   29  A    between atoms: _83  and  _85
REMARK   30  A    between atoms: _85  and  _86
REMARK   31  A    between atoms: _85  and  _88
REMARK   32  A    between atoms: _88  and  _89
REMARK   33  A    between atoms: _89  and  _90
REMARK   34  A    between atoms: _95  and  _97
REMARK   35  A    between atoms: _97  and  _98
REMARK   36  A    between atoms: _97  and  _100
REMARK   37  A    between atoms: _100  and  _101
REMARK   38  A    between atoms: _107  and  _109
REMARK   39  A    between atoms: _120  and  _123
REMARK   40  A    between atoms: _123  and  _124
REMARK   41  A    between atoms: _132  and  _133
REMARK   42  A    between atoms: _141  and  _143
REMARK   43  A    between atoms: _143  and  _144
REMARK   44  A    between atoms: _143  and  _146
REMARK   45  A    between atoms: _146  and  _147
REMARK   46  A    between atoms: _147  and  _148
REMARK   47  A    between atoms: _151  and  _153
REMARK   48  A    between atoms: _153  and  _154
REMARK   49  A    between atoms: _153  and  _156
REMARK   50  A    between atoms: _156  and  _157
REMARK   51  A    between atoms: _162  and  _164
REMARK   52  A    between atoms: _164  and  _165
REMARK   53  A    between atoms: _164  and  _167
REMARK   54  A    between atoms: _167  and  _168
REMARK   55  A    between atoms: _168  and  _169
REMARK   56  A    between atoms: _172  and  _174
REMARK   57  A    between atoms: _174  and  _175
REMARK   58  A    between atoms: _174  and  _177
REMARK   59  A    between atoms: _177  and  _178
REMARK   60  A    between atoms: _181  and  _183
REMARK   61  A    between atoms: _183  and  _184
REMARK   62  A    between atoms: _183  and  _186
REMARK   63  A    between atoms: _186  and  _187
REMARK   64  A    between atoms: _188  and  ZN_438
REMARK   65  A    between atoms: _192  and  _194
REMARK   66  A    between atoms: _194  and  _195
REMARK   67  A    between atoms: _194  and  _197
REMARK   68  A    between atoms: _197  and  _198
REMARK   69  A    between atoms: _201  and  _203
REMARK   70  A    between atoms: _203  and  _204
REMARK   71  A    between atoms: _203  and  _206
REMARK   72  A    between atoms: _209  and  _211
REMARK   73  A    between atoms: _211  and  _212
REMARK   74  A    between atoms: _211  and  _214
REMARK   75  A    between atoms: _214  and  _215
REMARK   76  A    between atoms: _220  and  _222
REMARK   77  A    between atoms: _222  and  _223
REMARK   78  A    between atoms: _222  and  _225
REMARK   79  A    between atoms: _225  and  _226
REMARK   80  A    between atoms: _232  and  _234
REMARK   81  A    between atoms: _234  and  _235
REMARK   82  A    between atoms: _237  and  _239
REMARK   83  A    between atoms: _239  and  _240
REMARK   84  A    between atoms: _239  and  _242
REMARK   85  A    between atoms: _242  and  _243
REMARK   86  A    between atoms: _243  and  _244
REMARK   87  A    between atoms: _244  and  _245
REMARK   88  A    between atoms: _245  and  _246
REMARK   89  A    between atoms: _250  and  _252
REMARK   90  A    between atoms: _252  and  _253
REMARK   91  A    between atoms: _252  and  _255
REMARK   92  A    between atoms: _258  and  _260
REMARK   93  A    between atoms: _260  and  _261
REMARK   94  A    between atoms: _260  and  _263
REMARK   95  A    between atoms: _263  and  _264
REMARK   96  A    between atoms: _264  and  _265
REMARK   97  A    between atoms: _270  and  _272
REMARK   98  A    between atoms: _272  and  _273
REMARK   99  A    between atoms: _272  and  _275
REMARK  100  A    between atoms: _275  and  _276
REMARK  101  A    between atoms: _279  and  _281
REMARK  102  A    between atoms: _281  and  _282
REMARK  103  A    between atoms: _285  and  _287
REMARK  104  A    between atoms: _287  and  _288
REMARK  105  A    between atoms: _287  and  _290
REMARK  106  A    between atoms: _293  and  _295
REMARK  107  A    between atoms: _295  and  _296
REMARK  108  A    between atoms: _295  and  _298
REMARK  109  A    between atoms: _298  and  _299
REMARK  110  A    between atoms: _302  and  _304
REMARK  111  A    between atoms: _304  and  _305
REMARK  112  A    between atoms: _307  and  _309
REMARK  113  A    between atoms: _309  and  _310
REMARK  114  A    between atoms: _312  and  _314
REMARK  115  A    between atoms: _314  and  _315
REMARK  116  A    between atoms: _314  and  _317
REMARK  117  A    between atoms: _317  and  _318
REMARK  118  A    between atoms: _320  and  _322
REMARK  119  A    between atoms: _322  and  _323
REMARK  120  A    between atoms: _322  and  _325
REMARK  121  A    between atoms: _325  and  _326
REMARK  122  A    between atoms: _329  and  _331
REMARK  123  A    between atoms: _331  and  _332
REMARK  124  A    between atoms: _331  and  _334
REMARK  125  A    between atoms: _334  and  _335
REMARK  126  A    between atoms: _338  and  _340
REMARK  127  A    between atoms: _340  and  _341
REMARK  128  A    between atoms: _340  and  _343
REMARK  129  A    between atoms: _343  and  _344
REMARK  130  A    between atoms: _348  and  _349
REMARK  131  A    between atoms: _355  and  _356
REMARK  132  A    between atoms: _361  and  _363
REMARK  133  A    between atoms: _363  and  _364
REMARK  134  A    between atoms: _363  and  _366
REMARK  135  A    between atoms: _366  and  _367
REMARK  136  A    between atoms: _370  and  _372
REMARK  137  A    between atoms: _372  and  _373
REMARK  138  A    between atoms: _372  and  _375
REMARK  139  A    between atoms: _375  and  _376
REMARK  140  A    between atoms: _379  and  _381
REMARK  141  A    between atoms: _381  and  _382
REMARK  142  A    between atoms: _381  and  _384
REMARK  143  A    between atoms: _386  and  _388
REMARK  144  A    between atoms: _388  and  _389
REMARK  145  A    between atoms: _388  and  _391
REMARK  146  A    between atoms: _394  and  _396
REMARK  147  A    between atoms: _396  and  _397
REMARK  148  A    between atoms: _396  and  _399
REMARK  149  A    between atoms: _399  and  _400
REMARK  150  A    between atoms: _410  and  _412
REMARK  151  A    between atoms: _412  and  _413
REMARK  152  A    between atoms: _412  and  _415
REMARK  153  A    between atoms: _415  and  _416
REMARK  154  A    between atoms: _421  and  _423
REMARK  155  A    between atoms: _423  and  _424
REMARK  156  A    between atoms: _423  and  _426
REMARK  157  A    between atoms: _426  and  _427
REMARK  158  A    between atoms: _427  and  _428
REMARK  159  A    between atoms: _428  and  _429
REMARK                            x       y       z     vdW  Elec       q    Type
REMARK                         _______ _______ _______ _____ _____    ______ ____
ROOT
ATOM      1  CB  ASN A   1      18.468   3.682   5.301  0.00  0.00    +0.110 C 
ENDROOT
BRANCH   1   2
ATOM      2  CG  ASN A   1      18.225   2.803   6.528  0.00  0.00    +0.221 C 
ATOM      3  ND2 ASN A   1      17.766   3.429   7.595  0.00  0.00    -0.329 N 
ATOM      4 HD21 ASN A   1      17.628   2.908   8.484  0.00  0.00    +0.145 HD
ATOM      5 HD22 ASN A   1      17.542   4.443   7.547  0.00  0.00    +0.145 HD
ATOM      6  OD1 ASN A   1      18.507   1.592   6.535  0.00  0.00    -0.275 OA
ENDBRANCH   1   2
BRANCH   1   7
ATOM      7  CA  ASN A   1      18.861   2.864   4.055  0.00  0.00    +0.142 C 
BRANCH   7   8
ATOM      8  N   ASN A   1      17.744   2.050   3.566  0.00  0.00    -0.239 NA
ATOM      9  H   ASN A   1      17.162   1.533   4.255  0.00  0.00    +0.142 HD
ENDBRANCH   7   8
BRANCH   7  10
ATOM     10  C   ASN A   1      20.146   2.065   4.318  0.00  0.00    +0.225 C 
ATOM     11  O   ASN A   1      21.124   2.605   4.863  0.00  0.00    -0.287 OA
ENDBRANCH   7  10
ENDBRANCH   1   7
TORSDOF 4
REMARK  Name = ../refined-set-2016/4z1j/4z1j_pocket.pdb
REMARK  159 active torsions:
REMARK  status: ('A' for Active; 'I' for Inactive)
REMARK    1  A    between atoms: _1  and  _3
REMARK    2  A    between atoms: _3  and  _4
REMARK    3  A    between atoms: _3  and  _6
REMARK    4  A    between atoms: _6  and  _7
REMARK    5  A    between atoms: _17  and  _19
REMARK    6  A    between atoms: _19  and  _20
REMARK    7  A    between atoms: _19  and  _22
REMARK    8  A    between atoms: _22  and  _23
REMARK    9  A    between atoms: _28  and  _29
REMARK   10  A    between atoms: _31  and  _33
REMARK   11  A    between atoms: _33  and  _34
REMARK   12  A    between atoms: _33  and  _36
REMARK   13  A    between atoms: _36  and  _37
REMARK   14  A    between atoms: _40  and  _41
REMARK   15  A    between atoms: _46  and  _48
REMARK   16  A    between atoms: _48  and  _49
REMARK   17  A    between atoms: _48  and  _51
REMARK   18  A    between atoms: _51  and  _52
REMARK   19  A    between atoms: _57  and  _59
REMARK   20  A    between atoms: _59  and  _60
REMARK   21  A    between atoms: _63  and  _65
REMARK   22  A    between atoms: _65  and  _66
REMARK   23  A    between atoms: _65  and  _68
REMARK   24  A    between atoms: _68  and  _69
REMARK   25  A    between atoms: _74  and  _76
REMARK   26  A    between atoms: _76  and  _77
REMARK   27  A    between atoms: _76  and  _79
REMARK   28  A    between atoms: _79  and  _80
REMARK   29  A    between atoms: _83  and  _85
REMARK   30  A    between atoms: _85  and  _86
REMARK   31  A    between atoms: _85  and  _88
REMARK   32  A    between atoms: _88  and  _89
REMARK   33  A    between atoms: _89  and  _90
REMARK   34  A    between atoms: _95  and  _97
REMARK   35  A    between atoms: _97  and  _98
REMARK   36  A    between atoms: _97  and  _100
REMARK   37  A    between atoms: _100  and  _101
REMARK   38  A    between atoms: _107  and  _109
REMARK   39  A    between atoms: _120  and  _123
REMARK   40  A    between atoms: _123  and  _124
REMARK   41  A    between atoms: _132  and  _133
REMARK   42  A    between atoms: _141  and  _143
REMARK   43  A    between atoms: _143  and  _144
REMARK   44  A    between atoms: _143  and  _146
REMARK   45  A    between atoms: _146  and  _147
REMARK   46  A    between atoms: _147  and  _148
REMARK   47  A    between atoms: _151  and  _153
REMARK   48  A    between atoms: _153  and  _154
REMARK   49  A    between atoms: _153  and  _156
REMARK   50  A    between atoms: _156  and  _157
REMARK   51  A    between atoms: _162  and  _164
REMARK   52  A    between atoms: _164  and  _165
REMARK   53  A    between atoms: _164  and  _167
REMARK   54  A    between atoms: _167  and  _168
REMARK   55  A    between atoms: _168  and  _169
REMARK   56  A    between atoms: _172  and  _174
REMARK   57  A    between atoms: _174  and  _175
REMARK   58  A    between atoms: _174  and  _177
REMARK   59  A    between atoms: _177  and  _178
REMARK   60  A    between atoms: _181  and  _183
REMARK   61  A    between atoms: _183  and  _184
REMARK   62  A    between atoms: _183  and  _186
REMARK   63  A    between atoms: _186  and  _187
REMARK   64  A    between atoms: _188  and  ZN_438
REMARK   65  A    between atoms: _192  and  _194
REMARK   66  A    between atoms: _194  and  _195
REMARK   67  A    between atoms: _194  and  _197
REMARK   68  A    between atoms: _197  and  _198
REMARK   69  A    between atoms: _201  and  _203
REMARK   70  A    between atoms: _203  and  _204
REMARK   71  A    between atoms: _203  and  _206
REMARK   72  A    between atoms: _209  and  _211
REMARK   73  A    between atoms: _211  and  _212
REMARK   74  A    between atoms: _211  and  _214
REMARK   75  A    between atoms: _214  and  _215
REMARK   76  A    between atoms: _220  and  _222
REMARK   77  A    between atoms: _222  and  _223
REMARK   78  A    between atoms: _222  and  _225
REMARK   79  A    between atoms: _225  and  _226
REMARK   80  A    between atoms: _232  and  _234
REMARK   81  A    between atoms: _234  and  _235
REMARK   82  A    between atoms: _237  and  _239
REMARK   83  A    between atoms: _239  and  _240
REMARK   84  A    between atoms: _239  and  _242
REMARK   85  A    between atoms: _242  and  _243
REMARK   86  A    between atoms: _243  and  _244
REMARK   87  A    between atoms: _244  and  _245
REMARK   88  A    between atoms: _245  and  _246
REMARK   89  A    between atoms: _250  and  _252
REMARK   90  A    between atoms: _252  and  _253
REMARK   91  A    between atoms: _252  and  _255
REMARK   92  A    between atoms: _258  and  _260
REMARK   93  A    between atoms: _260  and  _261
REMARK   94  A    between atoms: _260  and  _263
REMARK   95  A    between atoms: _263  and  _264
REMARK   96  A    between atoms: _264  and  _265
REMARK   97  A    between atoms: _270  and  _272
REMARK   98  A    between atoms: _272  and  _273
REMARK   99  A    between atoms: _272  and  _275
REMARK  100  A    between atoms: _275  and  _276
REMARK  101  A    between atoms: _279  and  _281
REMARK  102  A    between atoms: _281  and  _282
REMARK  103  A    between atoms: _285  and  _287
REMARK  104  A    between atoms: _287  and  _288
REMARK  105  A    between atoms: _287  and  _290
REMARK  106  A    between atoms: _293  and  _295
REMARK  107  A    between atoms: _295  and  _296
REMARK  108  A    between atoms: _295  and  _298
REMARK  109  A    between atoms: _298  and  _299
REMARK  110  A    between atoms: _302  and  _304
REMARK  111  A    between atoms: _304  and  _305
REMARK  112  A    between atoms: _307  and  _309
REMARK  113  A    between atoms: _309  and  _310
REMARK  114  A    between atoms: _312  and  _314
REMARK  115  A    between atoms: _314  and  _315
REMARK  116  A    between atoms: _314  and  _317
REMARK  117  A    between atoms: _317  and  _318
REMARK  118  A    between atoms: _320  and  _322
REMARK  119  A    between atoms: _322  and  _323
REMARK  120  A    between atoms: _322  and  _325
REMARK  121  A    between atoms: _325  and  _326
REMARK  122  A    between atoms: _329  and  _331
REMARK  123  A    between atoms: _331  and  _332
REMARK  124  A    between atoms: _331  and  _334
REMARK  125  A    between atoms: _334  and  _335
REMARK  126  A    between atoms: _338  and  _340
REMARK  127  A    between atoms: _340  and  _341
REMARK  128  A    between atoms: _340  and  _343
REMARK  129  A    between atoms: _343  and  _344
REMARK  130  A    between atoms: _348  and  _349
REMARK  131  A    between atoms: _355  and  _356
REMARK  132  A    between atoms: _361  and  _363
REMARK  133  A    between atoms: _363  and  _364
REMARK  134  A    between atoms: _363  and  _366
REMARK  135  A    between atoms: _366  and  _367
REMARK  136  A    between atoms: _370  and  _372
REMARK  137  A    between atoms: _372  and  _373
REMARK  138  A    between atoms: _372  and  _375
REMARK  139  A    between atoms: _375  and  _376
REMARK  140  A    between atoms: _379  and  _381
REMARK  141  A    between atoms: _381  and  _382
REMARK  142  A    between atoms: _381  and  _384
REMARK  143  A    between atoms: _386  and  _388
REMARK  144  A    between atoms: _388  and  _389
REMARK  145  A    between atoms: _388  and  _391
REMARK  146  A    between atoms: _394  and  _396
REMARK  147  A    between atoms: _396  and  _397
REMARK  148  A    between atoms: _396  and  _399
REMARK  149  A    between atoms: _399  and  _400
REMARK  150  A    between atoms: _410  and  _412
REMARK  151  A    between atoms: _412  and  _413
REMARK  152  A    between atoms: _412  and  _415
REMARK  153  A    between atoms: _415  and  _416
REMARK  154  A    between atoms: _421  and  _423
REMARK  155  A    between atoms: _423  and  _424
REMARK  156  A    between atoms: _423  and  _426
REMARK  157  A    between atoms: _426  and  _427
REMARK  158  A    between atoms: _427  and  _428
REMARK  159  A    between atoms: _428  and  _429
REMARK                            x       y       z     vdW  Elec       q    Type
REMARK                         _______ _______ _______ _____ _____    ______ ____
ROOT
ATOM      1  CA  ALA A   1      16.482  -1.607   7.287  0.00  0.00    +0.133 C 
ATOM      2  CB  ALA A   1      15.862  -1.322   8.655  0.00  0.00    +0.027 C 
ENDROOT
BRANCH   1   3
ATOM      3  N   ALA A   1      17.875  -1.194   7.237  0.00  0.00    -0.239 NA
ATOM      4  H   ALA A   1      18.093  -0.311   6.733  0.00  0.00    +0.142 HD
ENDBRANCH   1   3
BRANCH   1   5
ATOM      5  C   ALA A   1      15.751  -0.878   6.143  0.00  0.00    +0.224 C 
ATOM      6  O   ALA A   1      16.413  -0.233   5.289  0.00  0.00    -0.287 OA
ENDBRANCH   1   5
TORSDOF 2
REMARK  Name = ../refined-set-2016/4z1j/4z1j_pocket.pdb
REMARK  159 active torsions:
REMARK  status: ('A' for Active; 'I' for Inactive)
REMARK    1  A    between atoms: _1  and  _3
REMARK    2  A    between atoms: _3  and  _4
REMARK    3  A    between atoms: _3  and  _6
REMARK    4  A    between atoms: _6  and  _7
REMARK    5  A    between atoms: _17  and  _19
REMARK    6  A    between atoms: _19  and  _20
REMARK    7  A    between atoms: _19  and  _22
REMARK    8  A    between atoms: _22  and  _23
REMARK    9  A    between atoms: _28  and  _29
REMARK   10  A    between atoms: _31  and  _33
REMARK   11  A    between atoms: _33  and  _34
REMARK   12  A    between atoms: _33  and  _36
REMARK   13  A    between atoms: _36  and  _37
REMARK   14  A    between atoms: _40  and  _41
REMARK   15  A    between atoms: _46  and  _48
REMARK   16  A    between atoms: _48  and  _49
REMARK   17  A    between atoms: _48  and  _51
REMARK   18  A    between atoms: _51  and  _52
REMARK   19  A    between atoms: _57  and  _59
REMARK   20  A    between atoms: _59  and  _60
REMARK   21  A    between atoms: _63  and  _65
REMARK   22  A    between atoms: _65  and  _66
REMARK   23  A    between atoms: _65  and  _68
REMARK   24  A    between atoms: _68  and  _69
REMARK   25  A    between atoms: _74  and  _76
REMARK   26  A    between atoms: _76  and  _77
REMARK   27  A    between atoms: _76  and  _79
REMARK   28  A    between atoms: _79  and  _80
REMARK   29  A    between atoms: _83  and  _85
REMARK   30  A    between atoms: _85  and  _86
REMARK   31  A    between atoms: _85  and  _88
REMARK   32  A    between atoms: _88  and  _89
REMARK   33  A    between atoms: _89  and  _90
REMARK   34  A    between atoms: _95  and  _97
REMARK   35  A    between atoms: _97  and  _98
REMARK   36  A    between atoms: _97  and  _100
REMARK   37  A    between atoms: _100  and  _101
REMARK   38  A    between atoms: _107  and  _109
REMARK   39  A    between atoms: _120  and  _123
REMARK   40  A    between atoms: _123  and  _124
REMARK   41  A    between atoms: _132  and  _133
REMARK   42  A    between atoms: _141  and  _143
REMARK   43  A    between atoms: _143  and  _144
REMARK   44  A    between atoms: _143  and  _146
REMARK   45  A    between atoms: _146  and  _147
REMARK   46  A    between atoms: _147  and  _148
REMARK   47  A    between atoms: _151  and  _153
REMARK   48  A    between atoms: _153  and  _154
REMARK   49  A    between atoms: _153  and  _156
REMARK   50  A    between atoms: _156  and  _157
REMARK   51  A    between atoms: _162  and  _164
REMARK   52  A    between atoms: _164  and  _165
REMARK   53  A    between atoms: _164  and  _167
REMARK   54  A    between atoms: _167  and  _168
REMARK   55  A    between atoms: _168  and  _169
REMARK   56  A    between atoms: _172  and  _174
REMARK   57  A    between atoms: _174  and  _175
REMARK   58  A    between atoms: _174  and  _177
REMARK   59  A    between atoms: _177  and  _178
REMARK   60  A    between atoms: _181  and  _183
REMARK   61  A    between atoms: _183  and  _184
REMARK   62  A    between atoms: _183  and  _186
REMARK   63  A    between atoms: _186  and  _187
REMARK   64  A    between atoms: _188  and  ZN_438
REMARK   65  A    between atoms: _192  and  _194
REMARK   66  A    between atoms: _194  and  _195
REMARK   67  A    between atoms: _194  and  _197
REMARK   68  A    between atoms: _197  and  _198
REMARK   69  A    between atoms: _201  and  _203
REMARK   70  A    between atoms: _203  and  _204
REMARK   71  A    between atoms: _203  and  _206
REMARK   72  A    between atoms: _209  and  _211
REMARK   73  A    between atoms: _211  and  _212
REMARK   74  A    between atoms: _211  and  _214
REMARK   75  A    between atoms: _214  and  _215
REMARK   76  A    between atoms: _220  and  _222
REMARK   77  A    between atoms: _222  and  _223
REMARK   78  A    between atoms: _222  and  _225
REMARK   79  A    between atoms: _225  and  _226
REMARK   80  A    between atoms: _232  and  _234
REMARK   81  A    between atoms: _234  and  _235
REMARK   82  A    between atoms: _237  and  _239
REMARK   83  A    between atoms: _239  and  _240
REMARK   84  A    between atoms: _239  and  _242
REMARK   85  A    between atoms: _242  and  _243
REMARK   86  A    between atoms: _243  and  _244
REMARK   87  A    between atoms: _244  and  _245
REMARK   88  A    between atoms: _245  and  _246
REMARK   89  A    between atoms: _250  and  _252
REMARK   90  A    between atoms: _252  and  _253
REMARK   91  A    between atoms: _252  and  _255
REMARK   92  A    between atoms: _258  and  _260
REMARK   93  A    between atoms: _260  and  _261
REMARK   94  A    between atoms: _260  and  _263
REMARK   95  A    between atoms: _263  and  _264
REMARK   96  A    between atoms: _264  and  _265
REMARK   97  A    between atoms: _270  and  _272
REMARK   98  A    between atoms: _272  and  _273
REMARK   99  A    between atoms: _272  and  _275
REMARK  100  A    between atoms: _275  and  _276
REMARK  101  A    between atoms: _279  and  _281
REMARK  102  A    between atoms: _281  and  _282
REMARK  103  A    between atoms: _285  and  _287
REMARK  104  A    between atoms: _287  and  _288
REMARK  105  A    between atoms: _287  and  _290
REMARK  106  A    between atoms: _293  and  _295
REMARK  107  A    between atoms: _295  and  _296
REMARK  108  A    between atoms: _295  and  _298
REMARK  109  A    between atoms: _298  and  _299
REMARK  110  A    between atoms: _302  and  _304
REMARK  111  A    between atoms: _304  and  _305
REMARK  112  A    between atoms: _307  and  _309
REMARK  113  A    between atoms: _309  and  _310
REMARK  114  A    between atoms: _312  and  _314
REMARK  115  A    between atoms: _314  and  _315
REMARK  116  A    between atoms: _314  and  _317
REMARK  117  A    between atoms: _317  and  _318
REMARK  118  A    between atoms: _320  and  _322
REMARK  119  A    between atoms: _322  and  _323
REMARK  120  A    between atoms: _322  and  _325
REMARK  121  A    between atoms: _325  and  _326
REMARK  122  A    between atoms: _329  and  _331
REMARK  123  A    between atoms: _331  and  _332
REMARK  124  A    between atoms: _331  and  _334
REMARK  125  A    between atoms: _334  and  _335
REMARK  126  A    between atoms: _338  and  _340
REMARK  127  A    between atoms: _340  and  _341
REMARK  128  A    between atoms: _340  and  _343
REMARK  129  A    between atoms: _343  and  _344
REMARK  130  A    between atoms: _348  and  _349
REMARK  131  A    between atoms: _355  and  _356
REMARK  132  A    between atoms: _361  and  _363
REMARK  133  A    between atoms: _363  and  _364
REMARK  134  A    between atoms: _363  and  _366
REMARK  135  A    between atoms: _366  and  _367
REMARK  136  A    between atoms: _370  and  _372
REMARK  137  A    between atoms: _372  and  _373
REMARK  138  A    between atoms: _372  and  _375
REMARK  139  A    between atoms: _375  and  _376
REMARK  140  A    between atoms: _379  and  _381
REMARK  141  A    between atoms: _381  and  _382
REMARK  142  A    between atoms: _381  and  _384
REMARK  143  A    between atoms: _386  and  _388
REMARK  144  A    between atoms: _388  and  _389
REMARK  145  A    between atoms: _388  and  _391
REMARK  146  A    between atoms: _394  and  _396
REMARK  147  A    between atoms: _396  and  _397
REMARK  148  A    between atoms: _396  and  _399
REMARK  149  A    between atoms: _399  and  _400
REMARK  150  A    between atoms: _410  and  _412
REMARK  151  A    between atoms: _412  and  _413
REMARK  152  A    between atoms: _412  and  _415
REMARK  153  A    between atoms: _415  and  _416
REMARK  154  A    between atoms: _421  and  _423
REMARK  155  A    between atoms: _423  and  _424
REMARK  156  A    between atoms: _423  and  _426
REMARK  157  A    between atoms: _426  and  _427
REMARK  158  A    between atoms: _427  and  _428
REMARK  159  A    between atoms: _428  and  _429
REMARK                            x       y       z     vdW  Elec       q    Type
REMARK                         _______ _______ _______ _____ _____    ______ ____
ROOT
ATOM      1  CB  ASN A   1      12.672   4.335   6.958  0.00  0.00    +0.110 C 
ENDROOT
BRANCH   1   2
ATOM      2  CG  ASN A   1      13.814   4.109   7.913  0.00  0.00    +0.221 C 
ATOM      3  OD1 ASN A   1      13.923   3.076   8.552  0.00  0.00    -0.275 OA
ATOM      4  ND2 ASN A   1      14.634   5.144   8.083  0.00  0.00    -0.329 N 
ATOM      5 HD21 ASN A   1      15.402   5.089   8.782  0.00  0.00    +0.145 HD
ATOM      6 HD22 ASN A   1      14.506   6.007   7.517  0.00  0.00    +0.145 HD
ENDBRANCH   1   2
BRANCH   1   7
ATOM      7  CA  ASN A   1      11.907   3.060   6.600  0.00  0.00    +0.142 C 
BRANCH   7   8
ATOM      8  N   ASN A   1      12.735   2.130   5.870  0.00  0.00    -0.239 NA
ATOM      9  H   ASN A   1      13.304   2.480   5.073  0.00  0.00    +0.142 HD
ENDBRANCH   7   8
BRANCH   7  10
ATOM     10  C   ASN A   1      10.681   3.477   5.784  0.00  0.00    +0.225 C 
ATOM     11  O   ASN A   1      10.838   3.901   4.621  0.00  0.00    -0.287 OA
ENDBRANCH   7  10
ENDBRANCH   1   7
TORSDOF 4
REMARK  Name = ../refined-set-2016/4z1j/4z1j_pocket.pdb
REMARK  159 active torsions:
REMARK  status: ('A' for Active; 'I' for Inactive)
REMARK    1  A    between atoms: _1  and  _3
REMARK    2  A    between atoms: _3  and  _4
REMARK    3  A    between atoms: _3  and  _6
REMARK    4  A    between atoms: _6  and  _7
REMARK    5  A    between atoms: _17  and  _19
REMARK    6  A    between atoms: _19  and  _20
REMARK    7  A    between atoms: _19  and  _22
REMARK    8  A    between atoms: _22  and  _23
REMARK    9  A    between atoms: _28  and  _29
REMARK   10  A    between atoms: _31  and  _33
REMARK   11  A    between atoms: _33  and  _34
REMARK   12  A    between atoms: _33  and  _36
REMARK   13  A    between atoms: _36  and  _37
REMARK   14  A    between atoms: _40  and  _41
REMARK   15  A    between atoms: _46  and  _48
REMARK   16  A    between atoms: _48  and  _49
REMARK   17  A    between atoms: _48  and  _51
REMARK   18  A    between atoms: _51  and  _52
REMARK   19  A    between atoms: _57  and  _59
REMARK   20  A    between atoms: _59  and  _60
REMARK   21  A    between atoms: _63  and  _65
REMARK   22  A    between atoms: _65  and  _66
REMARK   23  A    between atoms: _65  and  _68
REMARK   24  A    between atoms: _68  and  _69
REMARK   25  A    between atoms: _74  and  _76
REMARK   26  A    between atoms: _76  and  _77
REMARK   27  A    between atoms: _76  and  _79
REMARK   28  A    between atoms: _79  and  _80
REMARK   29  A    between atoms: _83  and  _85
REMARK   30  A    between atoms: _85  and  _86
REMARK   31  A    between atoms: _85  and  _88
REMARK   32  A    between atoms: _88  and  _89
REMARK   33  A    between atoms: _89  and  _90
REMARK   34  A    between atoms: _95  and  _97
REMARK   35  A    between atoms: _97  and  _98
REMARK   36  A    between atoms: _97  and  _100
REMARK   37  A    between atoms: _100  and  _101
REMARK   38  A    between atoms: _107  and  _109
REMARK   39  A    between atoms: _120  and  _123
REMARK   40  A    between atoms: _123  and  _124
REMARK   41  A    between atoms: _132  and  _133
REMARK   42  A    between atoms: _141  and  _143
REMARK   43  A    between atoms: _143  and  _144
REMARK   44  A    between atoms: _143  and  _146
REMARK   45  A    between atoms: _146  and  _147
REMARK   46  A    between atoms: _147  and  _148
REMARK   47  A    between atoms: _151  and  _153
REMARK   48  A    between atoms: _153  and  _154
REMARK   49  A    between atoms: _153  and  _156
REMARK   50  A    between atoms: _156  and  _157
REMARK   51  A    between atoms: _162  and  _164
REMARK   52  A    between atoms: _164  and  _165
REMARK   53  A    between atoms: _164  and  _167
REMARK   54  A    between atoms: _167  and  _168
REMARK   55  A    between atoms: _168  and  _169
REMARK   56  A    between atoms: _172  and  _174
REMARK   57  A    between atoms: _174  and  _175
REMARK   58  A    between atoms: _174  and  _177
REMARK   59  A    between atoms: _177  and  _178
REMARK   60  A    between atoms: _181  and  _183
REMARK   61  A    between atoms: _183  and  _184
REMARK   62  A    between atoms: _183  and  _186
REMARK   63  A    between atoms: _186  and  _187
REMARK   64  A    between atoms: _188  and  ZN_438
REMARK   65  A    between atoms: _192  and  _194
REMARK   66  A    between atoms: _194  and  _195
REMARK   67  A    between atoms: _194  and  _197
REMARK   68  A    between atoms: _197  and  _198
REMARK   69  A    between atoms: _201  and  _203
REMARK   70  A    between atoms: _203  and  _204
REMARK   71  A    between atoms: _203  and  _206
REMARK   72  A    between atoms: _209  and  _211
REMARK   73  A    between atoms: _211  and  _212
REMARK   74  A    between atoms: _211  and  _214
REMARK   75  A    between atoms: _214  and  _215
REMARK   76  A    between atoms: _220  and  _222
REMARK   77  A    between atoms: _222  and  _223
REMARK   78  A    between atoms: _222  and  _225
REMARK   79  A    between atoms: _225  and  _226
REMARK   80  A    between atoms: _232  and  _234
REMARK   81  A    between atoms: _234  and  _235
REMARK   82  A    between atoms: _237  and  _239
REMARK   83  A    between atoms: _239  and  _240
REMARK   84  A    between atoms: _239  and  _242
REMARK   85  A    between atoms: _242  and  _243
REMARK   86  A    between atoms: _243  and  _244
REMARK   87  A    between atoms: _244  and  _245
REMARK   88  A    between atoms: _245  and  _246
REMARK   89  A    between atoms: _250  and  _252
REMARK   90  A    between atoms: _252  and  _253
REMARK   91  A    between atoms: _252  and  _255
REMARK   92  A    between atoms: _258  and  _260
REMARK   93  A    between atoms: _260  and  _261
REMARK   94  A    between atoms: _260  and  _263
REMARK   95  A    between atoms: _263  and  _264
REMARK   96  A    between atoms: _264  and  _265
REMARK   97  A    between atoms: _270  and  _272
REMARK   98  A    between atoms: _272  and  _273
REMARK   99  A    between atoms: _272  and  _275
REMARK  100  A    between atoms: _275  and  _276
REMARK  101  A    between atoms: _279  and  _281
REMARK  102  A    between atoms: _281  and  _282
REMARK  103  A    between atoms: _285  and  _287
REMARK  104  A    between atoms: _287  and  _288
REMARK  105  A    between atoms: _287  and  _290
REMARK  106  A    between atoms: _293  and  _295
REMARK  107  A    between atoms: _295  and  _296
REMARK  108  A    between atoms: _295  and  _298
REMARK  109  A    between atoms: _298  and  _299
REMARK  110  A    between atoms: _302  and  _304
REMARK  111  A    between atoms: _304  and  _305
REMARK  112  A    between atoms: _307  and  _309
REMARK  113  A    between atoms: _309  and  _310
REMARK  114  A    between atoms: _312  and  _314
REMARK  115  A    between atoms: _314  and  _315
REMARK  116  A    between atoms: _314  and  _317
REMARK  117  A    between atoms: _317  and  _318
REMARK  118  A    between atoms: _320  and  _322
REMARK  119  A    between atoms: _322  and  _323
REMARK  120  A    between atoms: _322  and  _325
REMARK  121  A    between atoms: _325  and  _326
REMARK  122  A    between atoms: _329  and  _331
REMARK  123  A    between atoms: _331  and  _332
REMARK  124  A    between atoms: _331  and  _334
REMARK  125  A    between atoms: _334  and  _335
REMARK  126  A    between atoms: _338  and  _340
REMARK  127  A    between atoms: _340  and  _341
REMARK  128  A    between atoms: _340  and  _343
REMARK  129  A    between atoms: _343  and  _344
REMARK  130  A    between atoms: _348  and  _349
REMARK  131  A    between atoms: _355  and  _356
REMARK  132  A    between atoms: _361  and  _363
REMARK  133  A    between atoms: _363  and  _364
REMARK  134  A    between atoms: _363  and  _366
REMARK  135  A    between atoms: _366  and  _367
REMARK  136  A    between atoms: _370  and  _372
REMARK  137  A    between atoms: _372  and  _373
REMARK  138  A    between atoms: _372  and  _375
REMARK  139  A    between atoms: _375  and  _376
REMARK  140  A    between atoms: _379  and  _381
REMARK  141  A    between atoms: _381  and  _382
REMARK  142  A    between atoms: _381  and  _384
REMARK  143  A    between atoms: _386  and  _388
REMARK  144  A    between atoms: _388  and  _389
REMARK  145  A    between atoms: _388  and  _391
REMARK  146  A    between atoms: _394  and  _396
REMARK  147  A    between atoms: _396  and  _397
REMARK  148  A    between atoms: _396  and  _399
REMARK  149  A    between atoms: _399  and  _400
REMARK  150  A    between atoms: _410  and  _412
REMARK  151  A    between atoms: _412  and  _413
REMARK  152  A    between atoms: _412  and  _415
REMARK  153  A    between atoms: _415  and  _416
REMARK  154  A    between atoms: _421  and  _423
REMARK  155  A    between atoms: _423  and  _424
REMARK  156  A    between atoms: _423  and  _426
REMARK  157  A    between atoms: _426  and  _427
REMARK  158  A    between atoms: _427  and  _428
REMARK  159  A    between atoms: _428  and  _429
REMARK                            x       y       z     vdW  Elec       q    Type
REMARK                         _______ _______ _______ _____ _____    ______ ____
ROOT
ATOM      1  C   UNK A   4      10.840   0.190  10.265  0.00  0.00    +0.000 C 
ATOM      2  C   UNK A   4      10.757  -1.066  11.102  0.00  0.00    +0.000 C 
ATOM      3  O   UNK A   4      10.105  -1.088  12.146  0.00  0.00    +0.000 OA
ATOM      4  N   VAL A   5      11.432  -2.109  10.643  0.00  0.00    +0.000 N 
ATOM      5  CA  VAL A   5      11.470  -3.393  11.327  0.00  0.00    +0.000 C 
ATOM      6  C   VAL A   5      12.912  -3.842  11.529  0.00  0.00    +0.000 C 
ATOM      7  N   UNK A   6      13.078  -4.783  12.449  0.00  0.00    +0.000 N 
ATOM      8  H   UNK A   6      12.284  -4.955  13.098  0.00  0.00    +0.000 HD
ATOM      9  C   UNK A   6      14.263  -5.591  12.632  0.00  0.00    +0.000 C 
ATOM     10  C   UNK A   6      14.912  -5.356  14.013  0.00  0.00    +0.000 C 
ATOM     11  C   UNK A   6      15.202  -3.914  14.282  0.00  0.00    +0.000 A 
ATOM     12  C   UNK A   6      14.365  -2.888  14.685  0.00  0.00    +0.000 A 
ATOM     13  N   UNK A   6      15.111  -1.738  14.748  0.00  0.00    +0.000 N 
ATOM     14 ZN   UNK A   6      14.357   0.041  15.343  0.00  0.00    +0.000 Zn
ATOM     15  N   UNK A   4      13.615   0.881  13.644  0.00  0.00    +0.000 N 
ATOM     16  C   UNK A   4      13.089   2.108  13.465  0.00  0.00    +0.000 A 
ATOM     17  N   UNK A   4      12.588   2.170  12.215  0.00  0.00    +0.000 NA
ATOM     18  C   UNK A   4      12.796   0.980  11.596  0.00  0.00    +0.000 A 
ATOM     19  C   UNK A   4      13.443   0.169  12.515  0.00  0.00    +0.000 A 
ATOM     20  C   UNK A   6      16.366  -2.042  14.423  0.00  0.00    +0.000 A 
ATOM     21  N   UNK A   6      16.423  -3.369  14.119  0.00  0.00    +0.000 NA
ATOM     22  O   VAL A   5      13.817  -3.370  10.868  0.00  0.00    +0.000 OA
ATOM     23  H   VAL A   5      11.959  -2.006   9.753  0.00  0.00    +0.000 HD
ATOM     24  C   UNK A   4      12.269   0.690  10.229  0.00  0.00    +0.000 C 
ENDROOT
BRANCH  14  25
ATOM     25  N   UNK A   6      12.887  -0.636  16.547  0.00  0.00    +0.000 N 
ATOM     26  C   UNK A   6      13.186  -1.568  17.464  0.00  0.00    +0.000 A 
ATOM     27  N   UNK A   6      12.056  -1.958  18.095  0.00  0.00    +0.000 NA
ATOM     28  C   UNK A   6      11.005  -1.280  17.544  0.00  0.00    +0.000 A 
ATOM     29  C   UNK A   6      11.521  -0.431  16.576  0.00  0.00    +0.000 A 
BRANCH  29  30
ATOM     30  C   UNK A   6      10.848   0.529  15.676  0.00  0.00    +0.000 C 
BRANCH  30  31
ATOM     31  C   UNK A   6       9.349   0.256  15.561  0.00  0.00    +0.000 C 
BRANCH  31  32
ATOM     32  C   UNK A   6       8.670   1.418  14.868  0.00  0.00    +0.000 C 
ATOM     33  N   UNK A   4       7.651   1.988  15.524  0.00  0.00    +0.000 N 
ATOM     34  H   UNK A   4       7.312   1.526  16.392  0.00  0.00    +0.000 HD
ATOM     35  O   UNK A   6       9.058   1.796  13.760  0.00  0.00    +0.000 OA
BRANCH  33  36
ATOM     36  C   UNK A   4       6.992   3.202  15.104  0.00  0.00    +0.000 C 
BRANCH  36  37
ATOM     37  C   UNK A   4       7.610   4.348  15.907  0.00  0.00    +0.000 C 
ATOM     38  O   UNK A   4       7.478   4.410  17.129  0.00  0.00    +0.000 OA
ATOM     39  N   VAL A   5       8.318   5.220  15.206  0.00  0.00    +0.000 N 
ATOM     40  H   VAL A   5       8.267   5.187  14.168  0.00  0.00    +0.000 HD
BRANCH  39  41
ATOM     41  CA  VAL A   5       9.160   6.217  15.830  0.00  0.00    +0.000 C 
BRANCH  41  42
ATOM     42  C   VAL A   5       8.468   7.579  15.838  0.00  0.00    +0.000 C 
ATOM     43  N   UNK A   6       8.415   8.184  17.014  0.00  0.00    +0.000 N 
ATOM     44  H   UNK A   6       8.875   7.733  17.830  0.00  0.00    +0.000 HD
ATOM     45  O   VAL A   5       8.048   8.054  14.772  0.00  0.00    +0.000 OA
BRANCH  43  46
ATOM     46  C   UNK A   6       7.734   9.461  17.207  0.00  0.00    +0.000 C 
BRANCH  46  47
ATOM     47  C   UNK A   6       8.621  10.432  17.946  0.00  0.00    +0.000 C 
ATOM     48  O   UNK A   6       9.358  10.030  18.831  0.00  0.00    +0.000 OA
ENDBRANCH  46  47
BRANCH  46  49
ATOM     49  C   UNK A   6       6.456   9.308  18.036  0.00  0.00    +0.000 C 
BRANCH  49  50
ATOM     50  C   UNK A   6       5.561   8.164  17.629  0.00  0.00    +0.000 A 
ATOM     51  N   UNK A   6       5.865   6.855  17.886  0.00  0.00    +0.000 NA
ATOM     52  C   UNK A   6       4.857   6.068  17.427  0.00  0.00    +0.000 A 
ATOM     53  N   UNK A   6       3.932   6.844  16.854  0.00  0.00    +0.000 NA
ATOM     54  C   UNK A   6       4.331   8.153  16.970  0.00  0.00    +0.000 A 
ENDBRANCH  49  50
ENDBRANCH  46  49
ENDBRANCH  43  46
ENDBRANCH  41  42
BRANCH  41  55
ATOM     55  CB  VAL A   5      10.505   6.326  15.042  0.00  0.00    +0.000 C 
ATOM     56  CG2 VAL A   5      11.430   7.379  15.656  0.00  0.00    +0.000 C 
ATOM     57  CG1 VAL A   5      11.211   4.964  14.892  0.00  0.00    +0.000 C 
ENDBRANCH  41  55
ENDBRANCH  39  41
ENDBRANCH  36  37
BRANCH  36  58
ATOM     58  C   UNK A   4       5.481   3.093  15.317  0.00  0.00    +0.000 C 
BRANCH  58  59
ATOM     59  C   UNK A   4       4.779   2.032  14.451  0.00  0.00    +0.000 C 
ATOM     60  C   UNK A   4       3.897   1.126  15.265  0.00  0.00    +0.000 C 
ATOM     61  C   UNK A   4       4.014   2.709  13.321  0.00  0.00    +0.000 C 
ENDBRANCH  58  59
ENDBRANCH  36  58
ENDBRANCH  33  36
ENDBRANCH  31  32
BRANCH  31  62
ATOM     62  N   UNK A   6       9.112  -0.976  14.820  0.00  0.00    +0.000 N 
ATOM     63  C   LEU A   2       8.483  -2.043  15.317  0.00  0.00    +0.000 C 
ATOM     64  O   LEU A   2       8.081  -2.121  16.486  0.00  0.00    +0.000 OA
ATOM     65  H   UNK A   6       9.455  -1.027  13.840  0.00  0.00    +0.000 HD
BRANCH  63  66
ATOM     66  CA  LEU A   2       8.263  -3.191  14.324  0.00  0.00    +0.000 C 
BRANCH  66  67
ATOM     67  N   LEU A   2       8.652  -4.438  14.966  0.00  0.00    +0.000 N 
ATOM     68  H   LEU A   2       7.936  -4.913  15.552  0.00  0.00    +0.000 HD
ATOM     69  C   GLU A   1       9.840  -5.023  14.870  0.00  0.00    +0.000 C 
ATOM     70  O   GLU A   1      10.756  -4.609  14.150  0.00  0.00    +0.000 OA
BRANCH  69  71
ATOM     71  CA  GLU A   1      10.010  -6.295  15.711  0.00  0.00    +0.000 C 
BRANCH  71  72
ATOM     72  N   GLU A   1      10.516  -7.338  14.849  0.00  0.00    +0.000 NA
ATOM     73  H   GLU A   1      11.163  -7.083  14.076  0.00  0.00    +0.000 HD
ENDBRANCH  71  72
BRANCH  71  74
ATOM     74  CB  GLU A   1      10.959  -6.065  16.883  0.00  0.00    +0.000 C 
BRANCH  74  75
ATOM     75  CG  GLU A   1      10.466  -5.071  17.920  0.00  0.00    +0.000 C 
BRANCH  75  76
ATOM     76  CD  GLU A   1      11.354  -5.000  19.163  0.00  0.00    +0.000 C 
ATOM     77  OE2 GLU A   1      11.397  -3.934  19.821  0.00  0.00    +0.000 OA
ATOM     78  OE1 GLU A   1      12.030  -6.014  19.440  0.00  0.00    +0.000 OA
ENDBRANCH  75  76
ENDBRANCH  74  75
ENDBRANCH  71  74
ENDBRANCH  69  71
ENDBRANCH  66  67
BRANCH  66  79
ATOM     79  CB  LEU A   2       6.758  -3.282  13.965  0.00  0.00    +0.000 C 
BRANCH  79  80
ATOM     80  CG  LEU A   2       5.988  -2.014  13.582  0.00  0.00    +0.000 C 
ATOM     81  CD2 LEU A   2       4.520  -2.334  13.329  0.00  0.00    +0.000 C 
ATOM     82  CD1 LEU A   2       6.599  -1.332  12.365  0.00  0.00    +0.000 C 
ENDBRANCH  79  80
ENDBRANCH  66  79
ENDBRANCH  63  66
ENDBRANCH  31  62
ENDBRANCH  30  31
ENDBRANCH  29  30
ENDBRANCH  14  25
BRANCH   1  84
ATOM     83  C   UNK A   3       9.414   2.177  10.180  0.00  0.00    +0.000 C 
ATOM     84  N   UNK A   4       9.977   1.175  10.865  0.00  0.00    +0.000 N 
ATOM     85  H   UNK A   4       9.781   1.104  11.884  0.00  0.00    +0.000 HD
ATOM     86  O   UNK A   3       9.645   2.395   8.987  0.00  0.00    +0.000 OA
BRANCH  83  87
ATOM     87  C   UNK A   3       8.490   3.053  10.994  0.00  0.00    +0.000 C 
BRANCH  87  90
ATOM     88  C   LEU A   2       8.595   5.473  11.128  0.00  0.00    +0.000 C 
ATOM     89  O   LEU A   2       8.564   5.504  12.362  0.00  0.00    +0.000 OA
ATOM     90  N   UNK A   3       8.360   4.384  10.407  0.00  0.00    +0.000 N 
ATOM     91  H   UNK A   3       8.079   4.480   9.410  0.00  0.00    +0.000 HD
BRANCH  88  92
ATOM     92  CA  LEU A   2       8.851   6.747  10.360  0.00  0.00    +0.000 C 
BRANCH  92  94
ATOM     93  C   GLU A   1       8.393   9.107  10.650  0.00  0.00    +0.000 C 
ATOM     94  N   LEU A   2       8.541   7.902  11.203  0.00  0.00    +0.000 N 
ATOM     95  H   LEU A   2       8.436   7.784  12.231  0.00  0.00    +0.000 HD
ATOM     96  O   GLU A   1       8.475   9.274   9.440  0.00  0.00    +0.000 OA
BRANCH  93  97
ATOM     97  CA  GLU A   1       8.105  10.272  11.579  0.00  0.00    +0.000 C 
BRANCH  97  98
ATOM     98  CB  GLU A   1       9.423  10.919  12.090  0.00  0.00    +0.000 C 
ATOM     99  CG2 GLU A   1      10.107  10.087  13.178  0.00  0.00    +0.000 C 
BRANCH  98 100
ATOM    100  CG1 GLU A   1      10.357  11.251  10.919  0.00  0.00    +0.000 C 
ATOM    101  CD1 GLU A   1      11.495  12.152  11.337  0.00  0.00    +0.000 C 
ENDBRANCH  98 100
ENDBRANCH  97  98
BRANCH  97 102
ATOM    102  N   GLU A   1       7.207   9.923  12.684  0.00  0.00    +0.000 NA
ATOM    103  H   GLU A   1       7.559   9.296  13.436  0.00  0.00    +0.000 HD
ENDBRANCH  97 102
ENDBRANCH  93  97
ENDBRANCH  92  94
BRANCH  92 104
ATOM    104  CB  LEU A   2      10.318   6.769   9.881  0.00  0.00    +0.000 C 
BRANCH 104 105
ATOM    105  CG  LEU A   2      11.384   6.812  10.985  0.00  0.00    +0.000 C 
BRANCH 105 106
ATOM    106  CD  LEU A   2      12.097   5.484  11.225  0.00  0.00    +0.000 C 
ATOM    107  NE2 LEU A   2      13.334   5.542  11.668  0.00  0.00    +0.000 N 
ATOM    108 HE21 LEU A   2      13.844   4.666  11.903  0.00  0.00    +0.000 HD
ATOM    109 HE22 LEU A   2      13.802   6.463  11.784  0.00  0.00    +0.000 HD
ATOM    110  OE1 LEU A   2      11.489   4.406  11.068  0.00  0.00    +0.000 OA
ENDBRANCH 105 106
ENDBRANCH 104 105
ENDBRANCH  92 104
ENDBRANCH  88  92
ENDBRANCH  87  90
BRANCH  87 111
ATOM    111  C   UNK A   3       7.123   2.374  11.252  0.00  0.00    +0.000 C 
BRANCH 111 112
ATOM    112  C   UNK A   3       6.361   1.891  10.021  0.00  0.00    +0.000 A 
ATOM    113  C   UNK A   3       5.230   2.578   9.589  0.00  0.00    +0.000 A 
ATOM    114  C   UNK A   3       4.515   2.133   8.490  0.00  0.00    +0.000 A 
ATOM    115  C   UNK A   3       4.901   0.997   7.812  0.00  0.00    +0.000 A 
ATOM    116  C   UNK A   3       6.007   0.291   8.245  0.00  0.00    +0.000 A 
ATOM    117  C   UNK A   3       6.732   0.727   9.344  0.00  0.00    +0.000 A 
ENDBRANCH 111 112
ENDBRANCH  87 111
ENDBRANCH  83  87
ENDBRANCH   1  84
BRANCH   9 118
ATOM    118  C   UNK A   6      13.822  -7.032  12.499  0.00  0.00    +0.000 C 
ATOM    119  O   UNK A   6      12.766  -7.390  13.016  0.00  0.00    +0.000 OA
ENDBRANCH   9 118
BRANCH   5 120
ATOM    120  CB  VAL A   5      10.758  -4.476  10.487  0.00  0.00    +0.000 C 
BRANCH 120 121
ATOM    121  CG  VAL A   5       9.303  -4.190  10.177  0.00  0.00    +0.000 A 
ATOM    122  CD2 VAL A   5       8.285  -4.830  10.846  0.00  0.00    +0.000 A 
ATOM    123  CE2 VAL A   5       6.971  -4.615  10.501  0.00  0.00    +0.000 A 
ATOM    124  CZ  VAL A   5       6.657  -3.752   9.462  0.00  0.00    +0.000 A 
ATOM    125  CE1 VAL A   5       7.656  -3.140   8.758  0.00  0.00    +0.000 A 
ATOM    126  CD1 VAL A   5       8.969  -3.365   9.101  0.00  0.00    +0.000 A 
ENDBRANCH 120 121
ENDBRANCH   5 120
TORSDOF 42
REMARK  Name = ../refined-set-2016/4z1j/4z1j_pocket.pdb
REMARK  159 active torsions:
REMARK  status: ('A' for Active; 'I' for Inactive)
REMARK    1  A    between atoms: _1  and  _3
REMARK    2  A    between atoms: _3  and  _4
REMARK    3  A    between atoms: _3  and  _6
REMARK    4  A    between atoms: _6  and  _7
REMARK    5  A    between atoms: _17  and  _19
REMARK    6  A    between atoms: _19  and  _20
REMARK    7  A    between atoms: _19  and  _22
REMARK    8  A    between atoms: _22  and  _23
REMARK    9  A    between atoms: _28  and  _29
REMARK   10  A    between atoms: _31  and  _33
REMARK   11  A    between atoms: _33  and  _34
REMARK   12  A    between atoms: _33  and  _36
REMARK   13  A    between atoms: _36  and  _37
REMARK   14  A    between atoms: _40  and  _41
REMARK   15  A    between atoms: _46  and  _48
REMARK   16  A    between atoms: _48  and  _49
REMARK   17  A    between atoms: _48  and  _51
REMARK   18  A    between atoms: _51  and  _52
REMARK   19  A    between atoms: _57  and  _59
REMARK   20  A    between atoms: _59  and  _60
REMARK   21  A    between atoms: _63  and  _65
REMARK   22  A    between atoms: _65  and  _66
REMARK   23  A    between atoms: _65  and  _68
REMARK   24  A    between atoms: _68  and  _69
REMARK   25  A    between atoms: _74  and  _76
REMARK   26  A    between atoms: _76  and  _77
REMARK   27  A    between atoms: _76  and  _79
REMARK   28  A    between atoms: _79  and  _80
REMARK   29  A    between atoms: _83  and  _85
REMARK   30  A    between atoms: _85  and  _86
REMARK   31  A    between atoms: _85  and  _88
REMARK   32  A    between atoms: _88  and  _89
REMARK   33  A    between atoms: _89  and  _90
REMARK   34  A    between atoms: _95  and  _97
REMARK   35  A    between atoms: _97  and  _98
REMARK   36  A    between atoms: _97  and  _100
REMARK   37  A    between atoms: _100  and  _101
REMARK   38  A    between atoms: _107  and  _109
REMARK   39  A    between atoms: _120  and  _123
REMARK   40  A    between atoms: _123  and  _124
REMARK   41  A    between atoms: _132  and  _133
REMARK   42  A    between atoms: _141  and  _143
REMARK   43  A    between atoms: _143  and  _144
REMARK   44  A    between atoms: _143  and  _146
REMARK   45  A    between atoms: _146  and  _147
REMARK   46  A    between atoms: _147  and  _148
REMARK   47  A    between atoms: _151  and  _153
REMARK   48  A    between atoms: _153  and  _154
REMARK   49  A    between atoms: _153  and  _156
REMARK   50  A    between atoms: _156  and  _157
REMARK   51  A    between atoms: _162  and  _164
REMARK   52  A    between atoms: _164  and  _165
REMARK   53  A    between atoms: _164  and  _167
REMARK   54  A    between atoms: _167  and  _168
REMARK   55  A    between atoms: _168  and  _169
REMARK   56  A    between atoms: _172  and  _174
REMARK   57  A    between atoms: _174  and  _175
REMARK   58  A    between atoms: _174  and  _177
REMARK   59  A    between atoms: _177  and  _178
REMARK   60  A    between atoms: _181  and  _183
REMARK   61  A    between atoms: _183  and  _184
REMARK   62  A    between atoms: _183  and  _186
REMARK   63  A    between atoms: _186  and  _187
REMARK   64  A    between atoms: _188  and  ZN_438
REMARK   65  A    between atoms: _192  and  _194
REMARK   66  A    between atoms: _194  and  _195
REMARK   67  A    between atoms: _194  and  _197
REMARK   68  A    between atoms: _197  and  _198
REMARK   69  A    between atoms: _201  and  _203
REMARK   70  A    between atoms: _203  and  _204
REMARK   71  A    between atoms: _203  and  _206
REMARK   72  A    between atoms: _209  and  _211
REMARK   73  A    between atoms: _211  and  _212
REMARK   74  A    between atoms: _211  and  _214
REMARK   75  A    between atoms: _214  and  _215
REMARK   76  A    between atoms: _220  and  _222
REMARK   77  A    between atoms: _222  and  _223
REMARK   78  A    between atoms: _222  and  _225
REMARK   79  A    between atoms: _225  and  _226
REMARK   80  A    between atoms: _232  and  _234
REMARK   81  A    between atoms: _234  and  _235
REMARK   82  A    between atoms: _237  and  _239
REMARK   83  A    between atoms: _239  and  _240
REMARK   84  A    between atoms: _239  and  _242
REMARK   85  A    between atoms: _242  and  _243
REMARK   86  A    between atoms: _243  and  _244
REMARK   87  A    between atoms: _244  and  _245
REMARK   88  A    between atoms: _245  and  _246
REMARK   89  A    between atoms: _250  and  _252
REMARK   90  A    between atoms: _252  and  _253
REMARK   91  A    between atoms: _252  and  _255
REMARK   92  A    between atoms: _258  and  _260
REMARK   93  A    between atoms: _260  and  _261
REMARK   94  A    between atoms: _260  and  _263
REMARK   95  A    between atoms: _263  and  _264
REMARK   96  A    between atoms: _264  and  _265
REMARK   97  A    between atoms: _270  and  _272
REMARK   98  A    between atoms: _272  and  _273
REMARK   99  A    between atoms: _272  and  _275
REMARK  100  A    between atoms: _275  and  _276
REMARK  101  A    between atoms: _279  and  _281
REMARK  102  A    between atoms: _281  and  _282
REMARK  103  A    between atoms: _285  and  _287
REMARK  104  A    between atoms: _287  and  _288
REMARK  105  A    between atoms: _287  and  _290
REMARK  106  A    between atoms: _293  and  _295
REMARK  107  A    between atoms: _295  and  _296
REMARK  108  A    between atoms: _295  and  _298
REMARK  109  A    between atoms: _298  and  _299
REMARK  110  A    between atoms: _302  and  _304
REMARK  111  A    between atoms: _304  and  _305
REMARK  112  A    between atoms: _307  and  _309
REMARK  113  A    between atoms: _309  and  _310
REMARK  114  A    between atoms: _312  and  _314
REMARK  115  A    between atoms: _314  and  _315
REMARK  116  A    between atoms: _314  and  _317
REMARK  117  A    between atoms: _317  and  _318
REMARK  118  A    between atoms: _320  and  _322
REMARK  119  A    between atoms: _322  and  _323
REMARK  120  A    between atoms: _322  and  _325
REMARK  121  A    between atoms: _325  and  _326
REMARK  122  A    between atoms: _329  and  _331
REMARK  123  A    between atoms: _331  and  _332
REMARK  124  A    between atoms: _331  and  _334
REMARK  125  A    between atoms: _334  and  _335
REMARK  126  A    between atoms: _338  and  _340
REMARK  127  A    between atoms: _340  and  _341
REMARK  128  A    between atoms: _340  and  _343
REMARK  129  A    between atoms: _343  and  _344
REMARK  130  A    between atoms: _348  and  _349
REMARK  131  A    between atoms: _355  and  _356
REMARK  132  A    between atoms: _361  and  _363
REMARK  133  A    between atoms: _363  and  _364
REMARK  134  A    between atoms: _363  and  _366
REMARK  135  A    between atoms: _366  and  _367
REMARK  136  A    between atoms: _370  and  _372
REMARK  137  A    between atoms: _372  and  _373
REMARK  138  A    between atoms: _372  and  _375
REMARK  139  A    between atoms: _375  and  _376
REMARK  140  A    between atoms: _379  and  _381
REMARK  141  A    between atoms: _381  and  _382
REMARK  142  A    between atoms: _381  and  _384
REMARK  143  A    between atoms: _386  and  _388
REMARK  144  A    between atoms: _388  and  _389
REMARK  145  A    between atoms: _388  and  _391
REMARK  146  A    between atoms: _394  and  _396
REMARK  147  A    between atoms: _396  and  _397
REMARK  148  A    between atoms: _396  and  _399
REMARK  149  A    between atoms: _399  and  _400
REMARK  150  A    between atoms: _410  and  _412
REMARK  151  A    between atoms: _412  and  _413
REMARK  152  A    between atoms: _412  and  _415
REMARK  153  A    between atoms: _415  and  _416
REMARK  154  A    between atoms: _421  and  _423
REMARK  155  A    between atoms: _423  and  _424
REMARK  156  A    between atoms: _423  and  _426
REMARK  157  A    between atoms: _426  and  _427
REMARK  158  A    between atoms: _427  and  _428
REMARK  159  A    between atoms: _428  and  _429
REMARK                            x       y       z     vdW  Elec       q    Type
REMARK                         _______ _______ _______ _____ _____    ______ ____
ROOT
ATOM      1  C   GLU A   1      15.144  -6.793  21.090  0.00  0.00    +0.238 C 
ATOM      2  O   GLU A   1      15.904  -7.355  21.860  0.00  0.00    -0.274 OA
ATOM      3  N   HIS A   2      13.968  -6.339  21.509  0.00  0.00    -0.298 N 
ATOM      4  H   HIS A   2      13.396  -5.717  20.902  0.00  0.00    +0.150 HD
ENDROOT
BRANCH   1   5
ATOM      5  CA  GLU A   1      15.478  -6.634  19.602  0.00  0.00    +0.145 C 
BRANCH   5   6
ATOM      6  N   GLU A   1      14.470  -7.337  18.804  0.00  0.00    -0.238 NA
ATOM      7  H   GLU A   1      13.594  -6.830  18.564  0.00  0.00    +0.142 HD
ENDBRANCH   5   6
BRANCH   5   8
ATOM      8  CB  GLU A   1      15.558  -5.158  19.190  0.00  0.00    +0.038 C 
BRANCH   8   9
ATOM      9  CG  GLU A   1      16.038  -5.021  17.764  0.00  0.00    +0.116 C 
BRANCH   9  10
ATOM     10  CD  GLU A   1      16.699  -3.721  17.464  0.00  0.00    +0.365 C 
ATOM     11  OE2 GLU A   1      16.067  -2.664  17.685  0.00  0.00    -0.246 OA
ATOM     12  OE1 GLU A   1      17.850  -3.751  16.963  0.00  0.00    -0.246 OA
ENDBRANCH   9  10
ENDBRANCH   8   9
ENDBRANCH   5   8
ENDBRANCH   1   5
BRANCH   3  13
ATOM     13  CA  HIS A   2      13.491  -6.724  22.830  0.00  0.00    +0.143 C 
BRANCH  13  14
ATOM     14  C   HIS A   2      13.176  -8.202  22.844  0.00  0.00    +0.227 C 
ATOM     15  O   HIS A   2      12.832  -8.809  21.807  0.00  0.00    -0.286 OA
ENDBRANCH  13  14
BRANCH  13  16
ATOM     16  CB  HIS A   2      12.243  -5.890  23.192  0.00  0.00    +0.075 C 
BRANCH  16  17
ATOM     17  CG  HIS A   2      12.579  -4.440  23.332  0.00  0.00    +0.082 A 
ATOM     18  CD2 HIS A   2      13.049  -3.730  24.419  0.00  0.00    +0.115 A 
ATOM     19  NE2 HIS A   2      13.269  -2.455  24.024  0.00  0.00    -0.221 NA
ATOM     20  CE1 HIS A   2      12.938  -2.356  22.734  0.00  0.00    +0.199 A 
ATOM     21  ND1 HIS A   2      12.507  -3.573  22.301  0.00  0.00    -0.227 NA
ENDBRANCH  16  17
ENDBRANCH  13  16
ENDBRANCH   3  13
TORSDOF 9
REMARK  Name = ../refined-set-2016/4z1j/4z1j_pocket.pdb
REMARK  159 active torsions:
REMARK  status: ('A' for Active; 'I' for Inactive)
REMARK    1  A    between atoms: _1  and  _3
REMARK    2  A    between atoms: _3  and  _4
REMARK    3  A    between atoms: _3  and  _6
REMARK    4  A    between atoms: _6  and  _7
REMARK    5  A    between atoms: _17  and  _19
REMARK    6  A    between atoms: _19  and  _20
REMARK    7  A    between atoms: _19  and  _22
REMARK    8  A    between atoms: _22  and  _23
REMARK    9  A    between atoms: _28  and  _29
REMARK   10  A    between atoms: _31  and  _33
REMARK   11  A    between atoms: _33  and  _34
REMARK   12  A    between atoms: _33  and  _36
REMARK   13  A    between atoms: _36  and  _37
REMARK   14  A    between atoms: _40  and  _41
REMARK   15  A    between atoms: _46  and  _48
REMARK   16  A    between atoms: _48  and  _49
REMARK   17  A    between atoms: _48  and  _51
REMARK   18  A    between atoms: _51  and  _52
REMARK   19  A    between atoms: _57  and  _59
REMARK   20  A    between atoms: _59  and  _60
REMARK   21  A    between atoms: _63  and  _65
REMARK   22  A    between atoms: _65  and  _66
REMARK   23  A    between atoms: _65  and  _68
REMARK   24  A    between atoms: _68  and  _69
REMARK   25  A    between atoms: _74  and  _76
REMARK   26  A    between atoms: _76  and  _77
REMARK   27  A    between atoms: _76  and  _79
REMARK   28  A    between atoms: _79  and  _80
REMARK   29  A    between atoms: _83  and  _85
REMARK   30  A    between atoms: _85  and  _86
REMARK   31  A    between atoms: _85  and  _88
REMARK   32  A    between atoms: _88  and  _89
REMARK   33  A    between atoms: _89  and  _90
REMARK   34  A    between atoms: _95  and  _97
REMARK   35  A    between atoms: _97  and  _98
REMARK   36  A    between atoms: _97  and  _100
REMARK   37  A    between atoms: _100  and  _101
REMARK   38  A    between atoms: _107  and  _109
REMARK   39  A    between atoms: _120  and  _123
REMARK   40  A    between atoms: _123  and  _124
REMARK   41  A    between atoms: _132  and  _133
REMARK   42  A    between atoms: _141  and  _143
REMARK   43  A    between atoms: _143  and  _144
REMARK   44  A    between atoms: _143  and  _146
REMARK   45  A    between atoms: _146  and  _147
REMARK   46  A    between atoms: _147  and  _148
REMARK   47  A    between atoms: _151  and  _153
REMARK   48  A    between atoms: _153  and  _154
REMARK   49  A    between atoms: _153  and  _156
REMARK   50  A    between atoms: _156  and  _157
REMARK   51  A    between atoms: _162  and  _164
REMARK   52  A    between atoms: _164  and  _165
REMARK   53  A    between atoms: _164  and  _167
REMARK   54  A    between atoms: _167  and  _168
REMARK   55  A    between atoms: _168  and  _169
REMARK   56  A    between atoms: _172  and  _174
REMARK   57  A    between atoms: _174  and  _175
REMARK   58  A    between atoms: _174  and  _177
REMARK   59  A    between atoms: _177  and  _178
REMARK   60  A    between atoms: _181  and  _183
REMARK   61  A    between atoms: _183  and  _184
REMARK   62  A    between atoms: _183  and  _186
REMARK   63  A    between atoms: _186  and  _187
REMARK   64  A    between atoms: _188  and  ZN_438
REMARK   65  A    between atoms: _192  and  _194
REMARK   66  A    between atoms: _194  and  _195
REMARK   67  A    between atoms: _194  and  _197
REMARK   68  A    between atoms: _197  and  _198
REMARK   69  A    between atoms: _201  and  _203
REMARK   70  A    between atoms: _203  and  _204
REMARK   71  A    between atoms: _203  and  _206
REMARK   72  A    between atoms: _209  and  _211
REMARK   73  A    between atoms: _211  and  _212
REMARK   74  A    between atoms: _211  and  _214
REMARK   75  A    between atoms: _214  and  _215
REMARK   76  A    between atoms: _220  and  _222
REMARK   77  A    between atoms: _222  and  _223
REMARK   78  A    between atoms: _222  and  _225
REMARK   79  A    between atoms: _225  and  _226
REMARK   80  A    between atoms: _232  and  _234
REMARK   81  A    between atoms: _234  and  _235
REMARK   82  A    between atoms: _237  and  _239
REMARK   83  A    between atoms: _239  and  _240
REMARK   84  A    between atoms: _239  and  _242
REMARK   85  A    between atoms: _242  and  _243
REMARK   86  A    between atoms: _243  and  _244
REMARK   87  A    between atoms: _244  and  _245
REMARK   88  A    between atoms: _245  and  _246
REMARK   89  A    between atoms: _250  and  _252
REMARK   90  A    between atoms: _252  and  _253
REMARK   91  A    between atoms: _252  and  _255
REMARK   92  A    between atoms: _258  and  _260
REMARK   93  A    between atoms: _260  and  _261
REMARK   94  A    between atoms: _260  and  _263
REMARK   95  A    between atoms: _263  and  _264
REMARK   96  A    between atoms: _264  and  _265
REMARK   97  A    between atoms: _270  and  _272
REMARK   98  A    between atoms: _272  and  _273
REMARK   99  A    between atoms: _272  and  _275
REMARK  100  A    between atoms: _275  and  _276
REMARK  101  A    between atoms: _279  and  _281
REMARK  102  A    between atoms: _281  and  _282
REMARK  103  A    between atoms: _285  and  _287
REMARK  104  A    between atoms: _287  and  _288
REMARK  105  A    between atoms: _287  and  _290
REMARK  106  A    between atoms: _293  and  _295
REMARK  107  A    between atoms: _295  and  _296
REMARK  108  A    between atoms: _295  and  _298
REMARK  109  A    between atoms: _298  and  _299
REMARK  110  A    between atoms: _302  and  _304
REMARK  111  A    between atoms: _304  and  _305
REMARK  112  A    between atoms: _307  and  _309
REMARK  113  A    between atoms: _309  and  _310
REMARK  114  A    between atoms: _312  and  _314
REMARK  115  A    between atoms: _314  and  _315
REMARK  116  A    between atoms: _314  and  _317
REMARK  117  A    between atoms: _317  and  _318
REMARK  118  A    between atoms: _320  and  _322
REMARK  119  A    between atoms: _322  and  _323
REMARK  120  A    between atoms: _322  and  _325
REMARK  121  A    between atoms: _325  and  _326
REMARK  122  A    between atoms: _329  and  _331
REMARK  123  A    between atoms: _331  and  _332
REMARK  124  A    between atoms: _331  and  _334
REMARK  125  A    between atoms: _334  and  _335
REMARK  126  A    between atoms: _338  and  _340
REMARK  127  A    between atoms: _340  and  _341
REMARK  128  A    between atoms: _340  and  _343
REMARK  129  A    between atoms: _343  and  _344
REMARK  130  A    between atoms: _348  and  _349
REMARK  131  A    between atoms: _355  and  _356
REMARK  132  A    between atoms: _361  and  _363
REMARK  133  A    between atoms: _363  and  _364
REMARK  134  A    between atoms: _363  and  _366
REMARK  135  A    between atoms: _366  and  _367
REMARK  136  A    between atoms: _370  and  _372
REMARK  137  A    between atoms: _372  and  _373
REMARK  138  A    between atoms: _372  and  _375
REMARK  139  A    between atoms: _375  and  _376
REMARK  140  A    between atoms: _379  and  _381
REMARK  141  A    between atoms: _381  and  _382
REMARK  142  A    between atoms: _381  and  _384
REMARK  143  A    between atoms: _386  and  _388
REMARK  144  A    between atoms: _388  and  _389
REMARK  145  A    between atoms: _388  and  _391
REMARK  146  A    between atoms: _394  and  _396
REMARK  147  A    between atoms: _396  and  _397
REMARK  148  A    between atoms: _396  and  _399
REMARK  149  A    between atoms: _399  and  _400
REMARK  150  A    between atoms: _410  and  _412
REMARK  151  A    between atoms: _412  and  _413
REMARK  152  A    between atoms: _412  and  _415
REMARK  153  A    between atoms: _415  and  _416
REMARK  154  A    between atoms: _421  and  _423
REMARK  155  A    between atoms: _423  and  _424
REMARK  156  A    between atoms: _423  and  _426
REMARK  157  A    between atoms: _426  and  _427
REMARK  158  A    between atoms: _427  and  _428
REMARK  159  A    between atoms: _428  and  _429
REMARK                            x       y       z     vdW  Elec       q    Type
REMARK                         _______ _______ _______ _____ _____    ______ ____
ROOT
ATOM      1  CA  GLY A   2      17.055  16.300  15.047  0.00  0.00    +0.176 C 
ENDROOT
BRANCH   1   4
ATOM      2  C   PHE A   1      14.865  15.380  15.520  0.00  0.00    +0.239 C 
ATOM      3  O   PHE A   1      15.304  14.802  16.518  0.00  0.00    -0.274 OA
ATOM      4  N   GLY A   2      15.643  16.137  14.752  0.00  0.00    -0.296 N 
ATOM      5  H   GLY A   2      15.233  16.620  13.927  0.00  0.00    +0.150 HD
BRANCH   2   6
ATOM      6  CA  PHE A   1      13.418  15.237  15.102  0.00  0.00    +0.149 C 
BRANCH   6   7
ATOM      7  N   PHE A   1      12.843  16.496  14.701  0.00  0.00    -0.238 NA
ATOM      8  H   PHE A   1      12.499  16.607  13.726  0.00  0.00    +0.142 HD
ENDBRANCH   6   7
BRANCH   6   9
ATOM      9  CB  PHE A   1      13.239  14.225  13.960  0.00  0.00    +0.053 C 
BRANCH   9  10
ATOM     10  CG  PHE A   1      13.868  12.892  14.213  0.00  0.00    -0.020 A 
ATOM     11  CD2 PHE A   1      13.190  11.916  14.904  0.00  0.00    -0.004 A 
ATOM     12  CE2 PHE A   1      13.764  10.671  15.138  0.00  0.00    -0.000 A 
ATOM     13  CZ  PHE A   1      15.022  10.415  14.719  0.00  0.00    -0.000 A 
ATOM     14  CE1 PHE A   1      15.708  11.382  14.022  0.00  0.00    -0.000 A 
ATOM     15  CD1 PHE A   1      15.136  12.616  13.789  0.00  0.00    -0.004 A 
ENDBRANCH   9  10
ENDBRANCH   6   9
ENDBRANCH   2   6
ENDBRANCH   1   4
BRANCH   1  16
ATOM     16  C   GLY A   2      17.346  16.970  16.389  0.00  0.00    +0.243 C 
ATOM     17  O   GLY A   2      18.314  16.668  17.034  0.00  0.00    -0.273 OA
ATOM     18  N   LYS A   3      16.497  17.897  16.798  0.00  0.00    -0.298 N 
ATOM     19  H   LYS A   3      15.746  18.217  16.154  0.00  0.00    +0.150 HD
BRANCH  18  20
ATOM     20  CA  LYS A   3      16.589  18.489  18.147  0.00  0.00    +0.137 C 
BRANCH  20  21
ATOM     21  C   LYS A   3      16.068  17.503  19.213  0.00  0.00    +0.227 C 
ATOM     22  O   LYS A   3      16.626  17.389  20.315  0.00  0.00    -0.286 OA
ENDBRANCH  20  21
BRANCH  20  23
ATOM     23  CB  LYS A   3      15.814  19.798  18.210  0.00  0.00    +0.028 C 
BRANCH  23  24
ATOM     24  CG  LYS A   3      16.552  20.916  17.516  0.00  0.00    -0.000 C 
BRANCH  24  25
ATOM     25  CD  LYS A   3      17.769  21.382  18.330  0.00  0.00    -0.024 C 
BRANCH  25  26
ATOM     26  CE  LYS A   3      18.395  22.648  17.769  0.00  0.00    -0.086 C 
BRANCH  26  27
ATOM     27  NZ  LYS A   3      19.134  22.381  16.507  0.00  0.00    +0.380 N 
ATOM     28  HZ1 LYS A   3      19.892  21.693  16.690  0.00  0.00    -0.089 HD
ATOM     29  HZ2 LYS A   3      19.547  23.268  16.154  0.00  0.00    -0.089 HD
ATOM     30  HZ3 LYS A   3      18.478  21.996  15.797  0.00  0.00    -0.089 HD
ENDBRANCH  26  27
ENDBRANCH  25  26
ENDBRANCH  24  25
ENDBRANCH  23  24
ENDBRANCH  20  23
ENDBRANCH  18  20
ENDBRANCH   1  16
TORSDOF 13
REMARK  Name = ../refined-set-2016/4z1j/4z1j_pocket.pdb
REMARK  159 active torsions:
REMARK  status: ('A' for Active; 'I' for Inactive)
REMARK    1  A    between atoms: _1  and  _3
REMARK    2  A    between atoms: _3  and  _4
REMARK    3  A    between atoms: _3  and  _6
REMARK    4  A    between atoms: _6  and  _7
REMARK    5  A    between atoms: _17  and  _19
REMARK    6  A    between atoms: _19  and  _20
REMARK    7  A    between atoms: _19  and  _22
REMARK    8  A    between atoms: _22  and  _23
REMARK    9  A    between atoms: _28  and  _29
REMARK   10  A    between atoms: _31  and  _33
REMARK   11  A    between atoms: _33  and  _34
REMARK   12  A    between atoms: _33  and  _36
REMARK   13  A    between atoms: _36  and  _37
REMARK   14  A    between atoms: _40  and  _41
REMARK   15  A    between atoms: _46  and  _48
REMARK   16  A    between atoms: _48  and  _49
REMARK   17  A    between atoms: _48  and  _51
REMARK   18  A    between atoms: _51  and  _52
REMARK   19  A    between atoms: _57  and  _59
REMARK   20  A    between atoms: _59  and  _60
REMARK   21  A    between atoms: _63  and  _65
REMARK   22  A    between atoms: _65  and  _66
REMARK   23  A    between atoms: _65  and  _68
REMARK   24  A    between atoms: _68  and  _69
REMARK   25  A    between atoms: _74  and  _76
REMARK   26  A    between atoms: _76  and  _77
REMARK   27  A    between atoms: _76  and  _79
REMARK   28  A    between atoms: _79  and  _80
REMARK   29  A    between atoms: _83  and  _85
REMARK   30  A    between atoms: _85  and  _86
REMARK   31  A    between atoms: _85  and  _88
REMARK   32  A    between atoms: _88  and  _89
REMARK   33  A    between atoms: _89  and  _90
REMARK   34  A    between atoms: _95  and  _97
REMARK   35  A    between atoms: _97  and  _98
REMARK   36  A    between atoms: _97  and  _100
REMARK   37  A    between atoms: _100  and  _101
REMARK   38  A    between atoms: _107  and  _109
REMARK   39  A    between atoms: _120  and  _123
REMARK   40  A    between atoms: _123  and  _124
REMARK   41  A    between atoms: _132  and  _133
REMARK   42  A    between atoms: _141  and  _143
REMARK   43  A    between atoms: _143  and  _144
REMARK   44  A    between atoms: _143  and  _146
REMARK   45  A    between atoms: _146  and  _147
REMARK   46  A    between atoms: _147  and  _148
REMARK   47  A    between atoms: _151  and  _153
REMARK   48  A    between atoms: _153  and  _154
REMARK   49  A    between atoms: _153  and  _156
REMARK   50  A    between atoms: _156  and  _157
REMARK   51  A    between atoms: _162  and  _164
REMARK   52  A    between atoms: _164  and  _165
REMARK   53  A    between atoms: _164  and  _167
REMARK   54  A    between atoms: _167  and  _168
REMARK   55  A    between atoms: _168  and  _169
REMARK   56  A    between atoms: _172  and  _174
REMARK   57  A    between atoms: _174  and  _175
REMARK   58  A    between atoms: _174  and  _177
REMARK   59  A    between atoms: _177  and  _178
REMARK   60  A    between atoms: _181  and  _183
REMARK   61  A    between atoms: _183  and  _184
REMARK   62  A    between atoms: _183  and  _186
REMARK   63  A    between atoms: _186  and  _187
REMARK   64  A    between atoms: _188  and  ZN_438
REMARK   65  A    between atoms: _192  and  _194
REMARK   66  A    between atoms: _194  and  _195
REMARK   67  A    between atoms: _194  and  _197
REMARK   68  A    between atoms: _197  and  _198
REMARK   69  A    between atoms: _201  and  _203
REMARK   70  A    between atoms: _203  and  _204
REMARK   71  A    between atoms: _203  and  _206
REMARK   72  A    between atoms: _209  and  _211
REMARK   73  A    between atoms: _211  and  _212
REMARK   74  A    between atoms: _211  and  _214
REMARK   75  A    between atoms: _214  and  _215
REMARK   76  A    between atoms: _220  and  _222
REMARK   77  A    between atoms: _222  and  _223
REMARK   78  A    between atoms: _222  and  _225
REMARK   79  A    between atoms: _225  and  _226
REMARK   80  A    between atoms: _232  and  _234
REMARK   81  A    between atoms: _234  and  _235
REMARK   82  A    between atoms: _237  and  _239
REMARK   83  A    between atoms: _239  and  _240
REMARK   84  A    between atoms: _239  and  _242
REMARK   85  A    between atoms: _242  and  _243
REMARK   86  A    between atoms: _243  and  _244
REMARK   87  A    between atoms: _244  and  _245
REMARK   88  A    between atoms: _245  and  _246
REMARK   89  A    between atoms: _250  and  _252
REMARK   90  A    between atoms: _252  and  _253
REMARK   91  A    between atoms: _252  and  _255
REMARK   92  A    between atoms: _258  and  _260
REMARK   93  A    between atoms: _260  and  _261
REMARK   94  A    between atoms: _260  and  _263
REMARK   95  A    between atoms: _263  and  _264
REMARK   96  A    between atoms: _264  and  _265
REMARK   97  A    between atoms: _270  and  _272
REMARK   98  A    between atoms: _272  and  _273
REMARK   99  A    between atoms: _272  and  _275
REMARK  100  A    between atoms: _275  and  _276
REMARK  101  A    between atoms: _279  and  _281
REMARK  102  A    between atoms: _281  and  _282
REMARK  103  A    between atoms: _285  and  _287
REMARK  104  A    between atoms: _287  and  _288
REMARK  105  A    between atoms: _287  and  _290
REMARK  106  A    between atoms: _293  and  _295
REMARK  107  A    between atoms: _295  and  _296
REMARK  108  A    between atoms: _295  and  _298
REMARK  109  A    between atoms: _298  and  _299
REMARK  110  A    between atoms: _302  and  _304
REMARK  111  A    between atoms: _304  and  _305
REMARK  112  A    between atoms: _307  and  _309
REMARK  113  A    between atoms: _309  and  _310
REMARK  114  A    between atoms: _312  and  _314
REMARK  115  A    between atoms: _314  and  _315
REMARK  116  A    between atoms: _314  and  _317
REMARK  117  A    between atoms: _317  and  _318
REMARK  118  A    between atoms: _320  and  _322
REMARK  119  A    between atoms: _322  and  _323
REMARK  120  A    between atoms: _322  and  _325
REMARK  121  A    between atoms: _325  and  _326
REMARK  122  A    between atoms: _329  and  _331
REMARK  123  A    between atoms: _331  and  _332
REMARK  124  A    between atoms: _331  and  _334
REMARK  125  A    between atoms: _334  and  _335
REMARK  126  A    between atoms: _338  and  _340
REMARK  127  A    between atoms: _340  and  _341
REMARK  128  A    between atoms: _340  and  _343
REMARK  129  A    between atoms: _343  and  _344
REMARK  130  A    between atoms: _348  and  _349
REMARK  131  A    between atoms: _355  and  _356
REMARK  132  A    between atoms: _361  and  _363
REMARK  133  A    between atoms: _363  and  _364
REMARK  134  A    between atoms: _363  and  _366
REMARK  135  A    between atoms: _366  and  _367
REMARK  136  A    between atoms: _370  and  _372
REMARK  137  A    between atoms: _372  and  _373
REMARK  138  A    between atoms: _372  and  _375
REMARK  139  A    between atoms: _375  and  _376
REMARK  140  A    between atoms: _379  and  _381
REMARK  141  A    between atoms: _381  and  _382
REMARK  142  A    between atoms: _381  and  _384
REMARK  143  A    between atoms: _386  and  _388
REMARK  144  A    between atoms: _388  and  _389
REMARK  145  A    between atoms: _388  and  _391
REMARK  146  A    between atoms: _394  and  _396
REMARK  147  A    between atoms: _396  and  _397
REMARK  148  A    between atoms: _396  and  _399
REMARK  149  A    between atoms: _399  and  _400
REMARK  150  A    between atoms: _410  and  _412
REMARK  151  A    between atoms: _412  and  _413
REMARK  152  A    between atoms: _412  and  _415
REMARK  153  A    between atoms: _415  and  _416
REMARK  154  A    between atoms: _421  and  _423
REMARK  155  A    between atoms: _423  and  _424
REMARK  156  A    between atoms: _423  and  _426
REMARK  157  A    between atoms: _426  and  _427
REMARK  158  A    between atoms: _427  and  _428
REMARK  159  A    between atoms: _428  and  _429
REMARK                            x       y       z     vdW  Elec       q    Type
REMARK                         _______ _______ _______ _____ _____    ______ ____
ROOT
ATOM      1  C   VAL A   1      18.218  13.555  20.673  0.00  0.00    +0.238 C 
ATOM      2  O   VAL A   1      18.890  12.704  21.232  0.00  0.00    -0.274 OA
ATOM      3  N   GLN A   2      18.351  14.866  20.890  0.00  0.00    -0.298 N 
ATOM      4  H   GLN A   2      17.758  15.531  20.353  0.00  0.00    +0.150 HD
ENDROOT
BRANCH   1   5
ATOM      5  CA  VAL A   1      17.129  13.147  19.710  0.00  0.00    +0.145 C 
BRANCH   5   6
ATOM      6  CB  VAL A   1      17.772  12.474  18.491  0.00  0.00    +0.025 C 
ATOM      7  CG2 VAL A   1      18.633  13.415  17.666  0.00  0.00    +0.002 C 
ATOM      8  CG1 VAL A   1      16.712  11.803  17.629  0.00  0.00    +0.002 C 
ENDBRANCH   5   6
BRANCH   5   9
ATOM      9  N   VAL A   1      16.222  14.222  19.355  0.00  0.00    -0.238 NA
ATOM     10  H   VAL A   1      16.204  14.590  18.382  0.00  0.00    +0.142 HD
ENDBRANCH   5   9
ENDBRANCH   1   5
BRANCH   3  11
ATOM     11  CA  GLN A   2      19.316  15.396  21.871  0.00  0.00    +0.137 C 
BRANCH  11  12
ATOM     12  C   GLN A   2      18.772  15.535  23.286  0.00  0.00    +0.227 C 
ATOM     13  O   GLN A   2      19.429  16.074  24.165  0.00  0.00    -0.286 OA
ENDBRANCH  11  12
BRANCH  11  14
ATOM     14  CB  GLN A   2      19.863  16.742  21.367  0.00  0.00    +0.037 C 
BRANCH  14  15
ATOM     15  CG  GLN A   2      20.538  16.658  20.005  0.00  0.00    +0.087 C 
BRANCH  15  16
ATOM     16  CD  GLN A   2      21.046  17.995  19.537  0.00  0.00    +0.219 C 
ATOM     17  OE1 GLN A   2      21.818  18.644  20.226  0.00  0.00    -0.275 OA
ATOM     18  NE2 GLN A   2      20.565  18.434  18.397  0.00  0.00    -0.329 N 
ATOM     19 HE21 GLN A   2      20.839  19.373  18.044  0.00  0.00    +0.145 HD
ATOM     20 HE22 GLN A   2      19.910  17.843  17.847  0.00  0.00    +0.145 HD
ENDBRANCH  15  16
ENDBRANCH  14  15
ENDBRANCH  11  14
ENDBRANCH   3  11
TORSDOF 8
REMARK  Name = ../refined-set-2016/4z1j/4z1j_pocket.pdb
REMARK  159 active torsions:
REMARK  status: ('A' for Active; 'I' for Inactive)
REMARK    1  A    between atoms: _1  and  _3
REMARK    2  A    between atoms: _3  and  _4
REMARK    3  A    between atoms: _3  and  _6
REMARK    4  A    between atoms: _6  and  _7
REMARK    5  A    between atoms: _17  and  _19
REMARK    6  A    between atoms: _19  and  _20
REMARK    7  A    between atoms: _19  and  _22
REMARK    8  A    between atoms: _22  and  _23
REMARK    9  A    between atoms: _28  and  _29
REMARK   10  A    between atoms: _31  and  _33
REMARK   11  A    between atoms: _33  and  _34
REMARK   12  A    between atoms: _33  and  _36
REMARK   13  A    between atoms: _36  and  _37
REMARK   14  A    between atoms: _40  and  _41
REMARK   15  A    between atoms: _46  and  _48
REMARK   16  A    between atoms: _48  and  _49
REMARK   17  A    between atoms: _48  and  _51
REMARK   18  A    between atoms: _51  and  _52
REMARK   19  A    between atoms: _57  and  _59
REMARK   20  A    between atoms: _59  and  _60
REMARK   21  A    between atoms: _63  and  _65
REMARK   22  A    between atoms: _65  and  _66
REMARK   23  A    between atoms: _65  and  _68
REMARK   24  A    between atoms: _68  and  _69
REMARK   25  A    between atoms: _74  and  _76
REMARK   26  A    between atoms: _76  and  _77
REMARK   27  A    between atoms: _76  and  _79
REMARK   28  A    between atoms: _79  and  _80
REMARK   29  A    between atoms: _83  and  _85
REMARK   30  A    between atoms: _85  and  _86
REMARK   31  A    between atoms: _85  and  _88
REMARK   32  A    between atoms: _88  and  _89
REMARK   33  A    between atoms: _89  and  _90
REMARK   34  A    between atoms: _95  and  _97
REMARK   35  A    between atoms: _97  and  _98
REMARK   36  A    between atoms: _97  and  _100
REMARK   37  A    between atoms: _100  and  _101
REMARK   38  A    between atoms: _107  and  _109
REMARK   39  A    between atoms: _120  and  _123
REMARK   40  A    between atoms: _123  and  _124
REMARK   41  A    between atoms: _132  and  _133
REMARK   42  A    between atoms: _141  and  _143
REMARK   43  A    between atoms: _143  and  _144
REMARK   44  A    between atoms: _143  and  _146
REMARK   45  A    between atoms: _146  and  _147
REMARK   46  A    between atoms: _147  and  _148
REMARK   47  A    between atoms: _151  and  _153
REMARK   48  A    between atoms: _153  and  _154
REMARK   49  A    between atoms: _153  and  _156
REMARK   50  A    between atoms: _156  and  _157
REMARK   51  A    between atoms: _162  and  _164
REMARK   52  A    between atoms: _164  and  _165
REMARK   53  A    between atoms: _164  and  _167
REMARK   54  A    between atoms: _167  and  _168
REMARK   55  A    between atoms: _168  and  _169
REMARK   56  A    between atoms: _172  and  _174
REMARK   57  A    between atoms: _174  and  _175
REMARK   58  A    between atoms: _174  and  _177
REMARK   59  A    between atoms: _177  and  _178
REMARK   60  A    between atoms: _181  and  _183
REMARK   61  A    between atoms: _183  and  _184
REMARK   62  A    between atoms: _183  and  _186
REMARK   63  A    between atoms: _186  and  _187
REMARK   64  A    between atoms: _188  and  ZN_438
REMARK   65  A    between atoms: _192  and  _194
REMARK   66  A    between atoms: _194  and  _195
REMARK   67  A    between atoms: _194  and  _197
REMARK   68  A    between atoms: _197  and  _198
REMARK   69  A    between atoms: _201  and  _203
REMARK   70  A    between atoms: _203  and  _204
REMARK   71  A    between atoms: _203  and  _206
REMARK   72  A    between atoms: _209  and  _211
REMARK   73  A    between atoms: _211  and  _212
REMARK   74  A    between atoms: _211  and  _214
REMARK   75  A    between atoms: _214  and  _215
REMARK   76  A    between atoms: _220  and  _222
REMARK   77  A    between atoms: _222  and  _223
REMARK   78  A    between atoms: _222  and  _225
REMARK   79  A    between atoms: _225  and  _226
REMARK   80  A    between atoms: _232  and  _234
REMARK   81  A    between atoms: _234  and  _235
REMARK   82  A    between atoms: _237  and  _239
REMARK   83  A    between atoms: _239  and  _240
REMARK   84  A    between atoms: _239  and  _242
REMARK   85  A    between atoms: _242  and  _243
REMARK   86  A    between atoms: _243  and  _244
REMARK   87  A    between atoms: _244  and  _245
REMARK   88  A    between atoms: _245  and  _246
REMARK   89  A    between atoms: _250  and  _252
REMARK   90  A    between atoms: _252  and  _253
REMARK   91  A    between atoms: _252  and  _255
REMARK   92  A    between atoms: _258  and  _260
REMARK   93  A    between atoms: _260  and  _261
REMARK   94  A    between atoms: _260  and  _263
REMARK   95  A    between atoms: _263  and  _264
REMARK   96  A    between atoms: _264  and  _265
REMARK   97  A    between atoms: _270  and  _272
REMARK   98  A    between atoms: _272  and  _273
REMARK   99  A    between atoms: _272  and  _275
REMARK  100  A    between atoms: _275  and  _276
REMARK  101  A    between atoms: _279  and  _281
REMARK  102  A    between atoms: _281  and  _282
REMARK  103  A    between atoms: _285  and  _287
REMARK  104  A    between atoms: _287  and  _288
REMARK  105  A    between atoms: _287  and  _290
REMARK  106  A    between atoms: _293  and  _295
REMARK  107  A    between atoms: _295  and  _296
REMARK  108  A    between atoms: _295  and  _298
REMARK  109  A    between atoms: _298  and  _299
REMARK  110  A    between atoms: _302  and  _304
REMARK  111  A    between atoms: _304  and  _305
REMARK  112  A    between atoms: _307  and  _309
REMARK  113  A    between atoms: _309  and  _310
REMARK  114  A    between atoms: _312  and  _314
REMARK  115  A    between atoms: _314  and  _315
REMARK  116  A    between atoms: _314  and  _317
REMARK  117  A    between atoms: _317  and  _318
REMARK  118  A    between atoms: _320  and  _322
REMARK  119  A    between atoms: _322  and  _323
REMARK  120  A    between atoms: _322  and  _325
REMARK  121  A    between atoms: _325  and  _326
REMARK  122  A    between atoms: _329  and  _331
REMARK  123  A    between atoms: _331  and  _332
REMARK  124  A    between atoms: _331  and  _334
REMARK  125  A    between atoms: _334  and  _335
REMARK  126  A    between atoms: _338  and  _340
REMARK  127  A    between atoms: _340  and  _341
REMARK  128  A    between atoms: _340  and  _343
REMARK  129  A    between atoms: _343  and  _344
REMARK  130  A    between atoms: _348  and  _349
REMARK  131  A    between atoms: _355  and  _356
REMARK  132  A    between atoms: _361  and  _363
REMARK  133  A    between atoms: _363  and  _364
REMARK  134  A    between atoms: _363  and  _366
REMARK  135  A    between atoms: _366  and  _367
REMARK  136  A    between atoms: _370  and  _372
REMARK  137  A    between atoms: _372  and  _373
REMARK  138  A    between atoms: _372  and  _375
REMARK  139  A    between atoms: _375  and  _376
REMARK  140  A    between atoms: _379  and  _381
REMARK  141  A    between atoms: _381  and  _382
REMARK  142  A    between atoms: _381  and  _384
REMARK  143  A    between atoms: _386  and  _388
REMARK  144  A    between atoms: _388  and  _389
REMARK  145  A    between atoms: _388  and  _391
REMARK  146  A    between atoms: _394  and  _396
REMARK  147  A    between atoms: _396  and  _397
REMARK  148  A    between atoms: _396  and  _399
REMARK  149  A    between atoms: _399  and  _400
REMARK  150  A    between atoms: _410  and  _412
REMARK  151  A    between atoms: _412  and  _413
REMARK  152  A    between atoms: _412  and  _415
REMARK  153  A    between atoms: _415  and  _416
REMARK  154  A    between atoms: _421  and  _423
REMARK  155  A    between atoms: _423  and  _424
REMARK  156  A    between atoms: _423  and  _426
REMARK  157  A    between atoms: _426  and  _427
REMARK  158  A    between atoms: _427  and  _428
REMARK  159  A    between atoms: _428  and  _429
REMARK                            x       y       z     vdW  Elec       q    Type
REMARK                         _______ _______ _______ _____ _____    ______ ____
ROOT
ATOM      1  CA  VAL A   3       9.166   4.380  20.057  0.00  0.00    +0.149 C 
ENDROOT
BRANCH   1   3
ATOM      2  C   ALA A   2       8.676   6.645  20.800  0.00  0.00    +0.241 C 
ATOM      3  N   VAL A   3       9.195   5.439  21.053  0.00  0.00    -0.297 N 
ATOM      4  H   VAL A   3       9.628   5.255  21.980  0.00  0.00    +0.150 HD
ATOM      5  O   ALA A   2       8.276   6.983  19.687  0.00  0.00    -0.273 OA
BRANCH   2   6
ATOM      6  CA  ALA A   2       8.729   7.651  21.924  0.00  0.00    +0.149 C 
ATOM      7  CB  ALA A   2       7.329   8.102  22.331  0.00  0.00    +0.031 C 
BRANCH   6  10
ATOM      8  C   LEU A   1      10.578   9.270  22.092  0.00  0.00    +0.238 C 
ATOM      9  O   LEU A   1      10.841   8.975  23.251  0.00  0.00    -0.274 OA
ATOM     10  N   ALA A   2       9.542   8.759  21.415  0.00  0.00    -0.297 N 
ATOM     11  H   ALA A   2       9.304   9.166  20.488  0.00  0.00    +0.150 HD
BRANCH   8  12
ATOM     12  CA  LEU A   1      11.446  10.214  21.308  0.00  0.00    +0.145 C 
BRANCH  12  13
ATOM     13  N   LEU A   1      12.091  11.186  22.170  0.00  0.00    -0.238 NA
ATOM     14  H   LEU A   1      12.679  10.850  22.959  0.00  0.00    +0.142 HD
ENDBRANCH  12  13
BRANCH  12  15
ATOM     15  CB  LEU A   1      12.445   9.372  20.505  0.00  0.00    +0.026 C 
BRANCH  15  16
ATOM     16  CG  LEU A   1      13.306  10.010  19.423  0.00  0.00    +0.002 C 
ATOM     17  CD2 LEU A   1      14.024   8.958  18.610  0.00  0.00    +0.000 C 
ATOM     18  CD1 LEU A   1      12.760  11.135  18.539  0.00  0.00    +0.000 C 
ENDBRANCH  15  16
ENDBRANCH  12  15
ENDBRANCH   8  12
ENDBRANCH   6  10
ENDBRANCH   2   6
ENDBRANCH   1   3
BRANCH   1  19
ATOM     19  C   VAL A   3       8.204   3.314  20.559  0.00  0.00    +0.241 C 
ATOM     20  O   VAL A   3       8.330   2.814  21.683  0.00  0.00    -0.273 OA
ATOM     21  N   LEU A   4       7.218   3.022  19.700  0.00  0.00    -0.297 N 
ATOM     22  H   LEU A   4       7.153   3.572  18.820  0.00  0.00    +0.150 HD
BRANCH  21  23
ATOM     23  CA  LEU A   4       6.236   1.980  19.931  0.00  0.00    +0.149 C 
BRANCH  23  24
ATOM     24  C   LEU A   4       6.774   0.718  19.255  0.00  0.00    +0.241 C 
ATOM     25  N   GLY A   5       7.045  -0.295  20.067  0.00  0.00    -0.296 N 
ATOM     26  H   GLY A   5       6.869  -0.195  21.087  0.00  0.00    +0.150 HD
ATOM     27  O   LEU A   4       6.889   0.674  18.032  0.00  0.00    -0.273 OA
BRANCH  25  28
ATOM     28  CA  GLY A   5       7.582  -1.538  19.554  0.00  0.00    +0.163 C 
BRANCH  28  29
ATOM     29  C   GLY A   5       6.518  -2.628  19.586  0.00  0.00    +0.229 C 
ATOM     30  O   GLY A   5       5.795  -2.777  20.573  0.00  0.00    -0.286 OA
ENDBRANCH  28  29
ENDBRANCH  25  28
ENDBRANCH  23  24
BRANCH  23  31
ATOM     31  CB  LEU A   4       4.863   2.432  19.387  0.00  0.00    +0.029 C 
BRANCH  31  32
ATOM     32  CG  LEU A   4       3.710   1.470  19.520  0.00  0.00    +0.002 C 
ATOM     33  CD2 LEU A   4       3.450   1.131  20.956  0.00  0.00    +0.000 C 
ATOM     34  CD1 LEU A   4       2.463   2.061  18.886  0.00  0.00    +0.000 C 
ENDBRANCH  31  32
ENDBRANCH  23  31
ENDBRANCH  21  23
ENDBRANCH   1  19
BRANCH   1  35
ATOM     35  CB  VAL A   3      10.539   3.791  19.687  0.00  0.00    +0.027 C 
ATOM     36  CG2 VAL A   3      11.501   4.891  19.254  0.00  0.00    +0.002 C 
ATOM     37  CG1 VAL A   3      10.387   2.780  18.556  0.00  0.00    +0.002 C 
ENDBRANCH   1  35
TORSDOF 15
REMARK  Name = ../refined-set-2016/4z1j/4z1j_pocket.pdb
REMARK  159 active torsions:
REMARK  status: ('A' for Active; 'I' for Inactive)
REMARK    1  A    between atoms: _1  and  _3
REMARK    2  A    between atoms: _3  and  _4
REMARK    3  A    between atoms: _3  and  _6
REMARK    4  A    between atoms: _6  and  _7
REMARK    5  A    between atoms: _17  and  _19
REMARK    6  A    between atoms: _19  and  _20
REMARK    7  A    between atoms: _19  and  _22
REMARK    8  A    between atoms: _22  and  _23
REMARK    9  A    between atoms: _28  and  _29
REMARK   10  A    between atoms: _31  and  _33
REMARK   11  A    between atoms: _33  and  _34
REMARK   12  A    between atoms: _33  and  _36
REMARK   13  A    between atoms: _36  and  _37
REMARK   14  A    between atoms: _40  and  _41
REMARK   15  A    between atoms: _46  and  _48
REMARK   16  A    between atoms: _48  and  _49
REMARK   17  A    between atoms: _48  and  _51
REMARK   18  A    between atoms: _51  and  _52
REMARK   19  A    between atoms: _57  and  _59
REMARK   20  A    between atoms: _59  and  _60
REMARK   21  A    between atoms: _63  and  _65
REMARK   22  A    between atoms: _65  and  _66
REMARK   23  A    between atoms: _65  and  _68
REMARK   24  A    between atoms: _68  and  _69
REMARK   25  A    between atoms: _74  and  _76
REMARK   26  A    between atoms: _76  and  _77
REMARK   27  A    between atoms: _76  and  _79
REMARK   28  A    between atoms: _79  and  _80
REMARK   29  A    between atoms: _83  and  _85
REMARK   30  A    between atoms: _85  and  _86
REMARK   31  A    between atoms: _85  and  _88
REMARK   32  A    between atoms: _88  and  _89
REMARK   33  A    between atoms: _89  and  _90
REMARK   34  A    between atoms: _95  and  _97
REMARK   35  A    between atoms: _97  and  _98
REMARK   36  A    between atoms: _97  and  _100
REMARK   37  A    between atoms: _100  and  _101
REMARK   38  A    between atoms: _107  and  _109
REMARK   39  A    between atoms: _120  and  _123
REMARK   40  A    between atoms: _123  and  _124
REMARK   41  A    between atoms: _132  and  _133
REMARK   42  A    between atoms: _141  and  _143
REMARK   43  A    between atoms: _143  and  _144
REMARK   44  A    between atoms: _143  and  _146
REMARK   45  A    between atoms: _146  and  _147
REMARK   46  A    between atoms: _147  and  _148
REMARK   47  A    between atoms: _151  and  _153
REMARK   48  A    between atoms: _153  and  _154
REMARK   49  A    between atoms: _153  and  _156
REMARK   50  A    between atoms: _156  and  _157
REMARK   51  A    between atoms: _162  and  _164
REMARK   52  A    between atoms: _164  and  _165
REMARK   53  A    between atoms: _164  and  _167
REMARK   54  A    between atoms: _167  and  _168
REMARK   55  A    between atoms: _168  and  _169
REMARK   56  A    between atoms: _172  and  _174
REMARK   57  A    between atoms: _174  and  _175
REMARK   58  A    between atoms: _174  and  _177
REMARK   59  A    between atoms: _177  and  _178
REMARK   60  A    between atoms: _181  and  _183
REMARK   61  A    between atoms: _183  and  _184
REMARK   62  A    between atoms: _183  and  _186
REMARK   63  A    between atoms: _186  and  _187
REMARK   64  A    between atoms: _188  and  ZN_438
REMARK   65  A    between atoms: _192  and  _194
REMARK   66  A    between atoms: _194  and  _195
REMARK   67  A    between atoms: _194  and  _197
REMARK   68  A    between atoms: _197  and  _198
REMARK   69  A    between atoms: _201  and  _203
REMARK   70  A    between atoms: _203  and  _204
REMARK   71  A    between atoms: _203  and  _206
REMARK   72  A    between atoms: _209  and  _211
REMARK   73  A    between atoms: _211  and  _212
REMARK   74  A    between atoms: _211  and  _214
REMARK   75  A    between atoms: _214  and  _215
REMARK   76  A    between atoms: _220  and  _222
REMARK   77  A    between atoms: _222  and  _223
REMARK   78  A    between atoms: _222  and  _225
REMARK   79  A    between atoms: _225  and  _226
REMARK   80  A    between atoms: _232  and  _234
REMARK   81  A    between atoms: _234  and  _235
REMARK   82  A    between atoms: _237  and  _239
REMARK   83  A    between atoms: _239  and  _240
REMARK   84  A    between atoms: _239  and  _242
REMARK   85  A    between atoms: _242  and  _243
REMARK   86  A    between atoms: _243  and  _244
REMARK   87  A    between atoms: _244  and  _245
REMARK   88  A    between atoms: _245  and  _246
REMARK   89  A    between atoms: _250  and  _252
REMARK   90  A    between atoms: _252  and  _253
REMARK   91  A    between atoms: _252  and  _255
REMARK   92  A    between atoms: _258  and  _260
REMARK   93  A    between atoms: _260  and  _261
REMARK   94  A    between atoms: _260  and  _263
REMARK   95  A    between atoms: _263  and  _264
REMARK   96  A    between atoms: _264  and  _265
REMARK   97  A    between atoms: _270  and  _272
REMARK   98  A    between atoms: _272  and  _273
REMARK   99  A    between atoms: _272  and  _275
REMARK  100  A    between atoms: _275  and  _276
REMARK  101  A    between atoms: _279  and  _281
REMARK  102  A    between atoms: _281  and  _282
REMARK  103  A    between atoms: _285  and  _287
REMARK  104  A    between atoms: _287  and  _288
REMARK  105  A    between atoms: _287  and  _290
REMARK  106  A    between atoms: _293  and  _295
REMARK  107  A    between atoms: _295  and  _296
REMARK  108  A    between atoms: _295  and  _298
REMARK  109  A    between atoms: _298  and  _299
REMARK  110  A    between atoms: _302  and  _304
REMARK  111  A    between atoms: _304  and  _305
REMARK  112  A    between atoms: _307  and  _309
REMARK  113  A    between atoms: _309  and  _310
REMARK  114  A    between atoms: _312  and  _314
REMARK  115  A    between atoms: _314  and  _315
REMARK  116  A    between atoms: _314  and  _317
REMARK  117  A    between atoms: _317  and  _318
REMARK  118  A    between atoms: _320  and  _322
REMARK  119  A    between atoms: _322  and  _323
REMARK  120  A    between atoms: _322  and  _325
REMARK  121  A    between atoms: _325  and  _326
REMARK  122  A    between atoms: _329  and  _331
REMARK  123  A    between atoms: _331  and  _332
REMARK  124  A    between atoms: _331  and  _334
REMARK  125  A    between atoms: _334  and  _335
REMARK  126  A    between atoms: _338  and  _340
REMARK  127  A    between atoms: _340  and  _341
REMARK  128  A    between atoms: _340  and  _343
REMARK  129  A    between atoms: _343  and  _344
REMARK  130  A    between atoms: _348  and  _349
REMARK  131  A    between atoms: _355  and  _356
REMARK  132  A    between atoms: _361  and  _363
REMARK  133  A    between atoms: _363  and  _364
REMARK  134  A    between atoms: _363  and  _366
REMARK  135  A    between atoms: _366  and  _367
REMARK  136  A    between atoms: _370  and  _372
REMARK  137  A    between atoms: _372  and  _373
REMARK  138  A    between atoms: _372  and  _375
REMARK  139  A    between atoms: _375  and  _376
REMARK  140  A    between atoms: _379  and  _381
REMARK  141  A    between atoms: _381  and  _382
REMARK  142  A    between atoms: _381  and  _384
REMARK  143  A    between atoms: _386  and  _388
REMARK  144  A    between atoms: _388  and  _389
REMARK  145  A    between atoms: _388  and  _391
REMARK  146  A    between atoms: _394  and  _396
REMARK  147  A    between atoms: _396  and  _397
REMARK  148  A    between atoms: _396  and  _399
REMARK  149  A    between atoms: _399  and  _400
REMARK  150  A    between atoms: _410  and  _412
REMARK  151  A    between atoms: _412  and  _413
REMARK  152  A    between atoms: _412  and  _415
REMARK  153  A    between atoms: _415  and  _416
REMARK  154  A    between atoms: _421  and  _423
REMARK  155  A    between atoms: _423  and  _424
REMARK  156  A    between atoms: _423  and  _426
REMARK  157  A    between atoms: _426  and  _427
REMARK  158  A    between atoms: _427  and  _428
REMARK  159  A    between atoms: _428  and  _429
REMARK                            x       y       z     vdW  Elec       q    Type
REMARK                         _______ _______ _______ _____ _____    ______ ____
ROOT
ATOM      1  CA  THR A   5      21.224   1.727  16.128  0.00  0.00    +0.176 C 
ENDROOT
BRANCH   1   2
ATOM      2  C   THR A   5      22.071   2.955  16.452  0.00  0.00    +0.246 C 
ATOM      3  O   THR A   5      21.594   3.890  17.102  0.00  0.00    -0.273 OA
ATOM      4  N   PRO A   6      23.353   2.963  16.001  0.00  0.00    -0.272 N 
ATOM      5  CA  PRO A   6      24.102   4.203  16.053  0.00  0.00    +0.152 C 
ATOM      6  CB  PRO A   6      25.290   3.898  15.150  0.00  0.00    +0.031 C 
ATOM      7  CG  PRO A   6      25.528   2.438  15.392  0.00  0.00    +0.024 C 
ATOM      8  CD  PRO A   6      24.144   1.887  15.374  0.00  0.00    +0.094 C 
BRANCH   5   9
ATOM      9  C   PRO A   6      23.250   5.364  15.523  0.00  0.00    +0.244 C 
ATOM     10  N   PRO A   7      23.283   6.529  16.181  0.00  0.00    -0.272 N 
ATOM     11  CA  PRO A   7      24.214   6.946  17.239  0.00  0.00    +0.152 C 
ATOM     12  CB  PRO A   7      24.220   8.470  17.067  0.00  0.00    +0.031 C 
ATOM     13  CG  PRO A   7      22.803   8.753  16.623  0.00  0.00    +0.024 C 
ATOM     14  CD  PRO A   7      22.494   7.660  15.653  0.00  0.00    +0.094 C 
ATOM     15  O   PRO A   6      22.550   5.190  14.524  0.00  0.00    -0.273 OA
BRANCH  11  16
ATOM     16  C   PRO A   7      23.868   6.517  18.675  0.00  0.00    +0.241 C 
ATOM     17  O   PRO A   7      24.539   6.913  19.599  0.00  0.00    -0.273 OA
ATOM     18  N   LEU A   8      22.871   5.642  18.848  0.00  0.00    -0.297 N 
ATOM     19  H   LEU A   8      22.269   5.395  18.037  0.00  0.00    +0.150 HD
BRANCH  18  20
ATOM     20  CA  LEU A   8      22.599   5.012  20.169  0.00  0.00    +0.149 C 
BRANCH  20  21
ATOM     21  C   LEU A   8      22.223   6.028  21.258  0.00  0.00    +0.241 C 
ATOM     22  O   LEU A   8      22.369   5.764  22.432  0.00  0.00    -0.273 OA
ATOM     23  N   LEU A   9      21.675   7.168  20.834  0.00  0.00    -0.298 N 
ATOM     24  H   LEU A   9      21.463   7.287  19.823  0.00  0.00    +0.150 HD
BRANCH  23  25
ATOM     25  CA  LEU A   9      21.367   8.251  21.763  0.00  0.00    +0.137 C 
BRANCH  25  26
ATOM     26  C   LEU A   9      20.320   7.845  22.787  0.00  0.00    +0.227 C 
ATOM     27  O   LEU A   9      19.343   7.140  22.468  0.00  0.00    -0.286 OA
ENDBRANCH  25  26
BRANCH  25  28
ATOM     28  CB  LEU A   9      20.909   9.487  20.991  0.00  0.00    +0.028 C 
BRANCH  28  29
ATOM     29  CG  LEU A   9      21.961  10.069  20.040  0.00  0.00    +0.002 C 
ATOM     30  CD2 LEU A   9      23.139  10.673  20.814  0.00  0.00    +0.000 C 
ATOM     31  CD1 LEU A   9      21.284  11.052  19.084  0.00  0.00    +0.000 C 
ENDBRANCH  28  29
ENDBRANCH  25  28
ENDBRANCH  23  25
ENDBRANCH  20  21
BRANCH  20  32
ATOM     32  CB  LEU A   8      23.776   4.142  20.618  0.00  0.00    +0.029 C 
BRANCH  32  33
ATOM     33  CG  LEU A   8      24.081   2.964  19.676  0.00  0.00    +0.002 C 
ATOM     34  CD2 LEU A   8      25.391   2.324  20.065  0.00  0.00    +0.000 C 
ATOM     35  CD1 LEU A   8      22.981   1.925  19.638  0.00  0.00    +0.000 C 
ENDBRANCH  32  33
ENDBRANCH  20  32
ENDBRANCH  18  20
ENDBRANCH  11  16
ENDBRANCH   5   9
ENDBRANCH   1   2
BRANCH   1  38
ATOM     36  C   THR A   4      20.016   0.572  17.911  0.00  0.00    +0.243 C 
ATOM     37  O   THR A   4      20.644  -0.482  17.739  0.00  0.00    -0.273 OA
ATOM     38  N   THR A   5      20.139   1.622  17.105  0.00  0.00    -0.295 N 
ATOM     39  H   THR A   5      19.443   2.392  17.171  0.00  0.00    +0.150 HD
BRANCH  36  40
ATOM     40  CA  THR A   4      19.008   0.672  19.047  0.00  0.00    +0.176 C 
BRANCH  40  43
ATOM     41  C   LEU A   3      18.805   2.941  19.900  0.00  0.00    +0.241 C 
ATOM     42  O   LEU A   3      19.804   2.774  20.616  0.00  0.00    -0.273 OA
ATOM     43  N   THR A   4      18.366   1.988  19.093  0.00  0.00    -0.295 N 
ATOM     44  H   THR A   4      17.548   2.177  18.479  0.00  0.00    +0.150 HD
BRANCH  41  45
ATOM     45  CA  LEU A   3      18.067   4.272  19.896  0.00  0.00    +0.149 C 
BRANCH  45  48
ATOM     46  C   SER A   2      17.545   4.127  22.246  0.00  0.00    +0.243 C 
ATOM     47  O   SER A   2      16.790   3.173  22.060  0.00  0.00    -0.273 OA
ATOM     48  N   LEU A   3      18.092   4.806  21.235  0.00  0.00    -0.297 N 
ATOM     49  H   LEU A   3      18.540   5.727  21.415  0.00  0.00    +0.150 HD
BRANCH  46  50
ATOM     50  CA  SER A   2      17.982   4.526  23.654  0.00  0.00    +0.178 C 
BRANCH  50  53
ATOM     51  C   GLY A   1      16.747   4.572  25.736  0.00  0.00    +0.240 C 
ATOM     52  O   GLY A   1      16.847   5.793  25.859  0.00  0.00    -0.274 OA
ATOM     53  N   SER A   2      17.185   3.897  24.688  0.00  0.00    -0.295 N 
ATOM     54  H   SER A   2      16.951   2.887  24.603  0.00  0.00    +0.150 HD
BRANCH  51  55
ATOM     55  CA  GLY A   1      16.197   3.706  26.827  0.00  0.00    +0.169 C 
BRANCH  55  56
ATOM     56  N   GLY A   1      15.086   4.310  27.569  0.00  0.00    -0.236 NA
ATOM     57  H   GLY A   1      14.475   5.007  27.097  0.00  0.00    +0.142 HD
ENDBRANCH  55  56
ENDBRANCH  51  55
ENDBRANCH  50  53
BRANCH  50  58
ATOM     58  CB  SER A   2      19.463   4.114  23.782  0.00  0.00    +0.166 C 
BRANCH  58  59
ATOM     59  OG  SER A   2      19.713   2.799  23.358  0.00  0.00    -0.380 OA
ATOM     60  H   SER A   2      19.459   2.707  22.406  0.00  0.00    +0.211 HD
ENDBRANCH  58  59
ENDBRANCH  50  58
ENDBRANCH  46  50
ENDBRANCH  45  48
BRANCH  45  61
ATOM     61  CB  LEU A   3      18.763   5.204  18.917  0.00  0.00    +0.029 C 
BRANCH  61  62
ATOM     62  CG  LEU A   3      18.228   6.627  18.797  0.00  0.00    +0.002 C 
ATOM     63  CD2 LEU A   3      16.816   6.596  18.243  0.00  0.00    +0.000 C 
ATOM     64  CD1 LEU A   3      19.147   7.458  17.897  0.00  0.00    +0.000 C 
ENDBRANCH  61  62
ENDBRANCH  45  61
ENDBRANCH  41  45
ENDBRANCH  40  43
BRANCH  40  65
ATOM     65  CB  THR A   4      17.994  -0.450  18.930  0.00  0.00    +0.137 C 
ATOM     66  CG2 THR A   4      16.973  -0.423  20.069  0.00  0.00    +0.034 C 
BRANCH  65  67
ATOM     67  OG1 THR A   4      17.394  -0.390  17.635  0.00  0.00    -0.382 OA
ATOM     68  HG1 THR A   4      16.729  -1.118  17.546  0.00  0.00    +0.210 HD
ENDBRANCH  65  67
ENDBRANCH  40  65
ENDBRANCH  36  40
ENDBRANCH   1  38
BRANCH   1  69
ATOM     69  CB  THR A   5      20.690   1.920  14.692  0.00  0.00    +0.137 C 
ATOM     70  CG2 THR A   5      19.756   0.824  14.285  0.00  0.00    +0.034 C 
BRANCH  69  71
ATOM     71  OG1 THR A   5      20.005   3.166  14.584  0.00  0.00    -0.382 OA
ATOM     72  HG1 THR A   5      19.668   3.277  13.660  0.00  0.00    +0.210 HD
ENDBRANCH  69  71
ENDBRANCH   1  69
TORSDOF 28
REMARK  Name = ../refined-set-2016/4z1j/4z1j_pocket.pdb
REMARK  159 active torsions:
REMARK  status: ('A' for Active; 'I' for Inactive)
REMARK    1  A    between atoms: _1  and  _3
REMARK    2  A    between atoms: _3  and  _4
REMARK    3  A    between atoms: _3  and  _6
REMARK    4  A    between atoms: _6  and  _7
REMARK    5  A    between atoms: _17  and  _19
REMARK    6  A    between atoms: _19  and  _20
REMARK    7  A    between atoms: _19  and  _22
REMARK    8  A    between atoms: _22  and  _23
REMARK    9  A    between atoms: _28  and  _29
REMARK   10  A    between atoms: _31  and  _33
REMARK   11  A    between atoms: _33  and  _34
REMARK   12  A    between atoms: _33  and  _36
REMARK   13  A    between atoms: _36  and  _37
REMARK   14  A    between atoms: _40  and  _41
REMARK   15  A    between atoms: _46  and  _48
REMARK   16  A    between atoms: _48  and  _49
REMARK   17  A    between atoms: _48  and  _51
REMARK   18  A    between atoms: _51  and  _52
REMARK   19  A    between atoms: _57  and  _59
REMARK   20  A    between atoms: _59  and  _60
REMARK   21  A    between atoms: _63  and  _65
REMARK   22  A    between atoms: _65  and  _66
REMARK   23  A    between atoms: _65  and  _68
REMARK   24  A    between atoms: _68  and  _69
REMARK   25  A    between atoms: _74  and  _76
REMARK   26  A    between atoms: _76  and  _77
REMARK   27  A    between atoms: _76  and  _79
REMARK   28  A    between atoms: _79  and  _80
REMARK   29  A    between atoms: _83  and  _85
REMARK   30  A    between atoms: _85  and  _86
REMARK   31  A    between atoms: _85  and  _88
REMARK   32  A    between atoms: _88  and  _89
REMARK   33  A    between atoms: _89  and  _90
REMARK   34  A    between atoms: _95  and  _97
REMARK   35  A    between atoms: _97  and  _98
REMARK   36  A    between atoms: _97  and  _100
REMARK   37  A    between atoms: _100  and  _101
REMARK   38  A    between atoms: _107  and  _109
REMARK   39  A    between atoms: _120  and  _123
REMARK   40  A    between atoms: _123  and  _124
REMARK   41  A    between atoms: _132  and  _133
REMARK   42  A    between atoms: _141  and  _143
REMARK   43  A    between atoms: _143  and  _144
REMARK   44  A    between atoms: _143  and  _146
REMARK   45  A    between atoms: _146  and  _147
REMARK   46  A    between atoms: _147  and  _148
REMARK   47  A    between atoms: _151  and  _153
REMARK   48  A    between atoms: _153  and  _154
REMARK   49  A    between atoms: _153  and  _156
REMARK   50  A    between atoms: _156  and  _157
REMARK   51  A    between atoms: _162  and  _164
REMARK   52  A    between atoms: _164  and  _165
REMARK   53  A    between atoms: _164  and  _167
REMARK   54  A    between atoms: _167  and  _168
REMARK   55  A    between atoms: _168  and  _169
REMARK   56  A    between atoms: _172  and  _174
REMARK   57  A    between atoms: _174  and  _175
REMARK   58  A    between atoms: _174  and  _177
REMARK   59  A    between atoms: _177  and  _178
REMARK   60  A    between atoms: _181  and  _183
REMARK   61  A    between atoms: _183  and  _184
REMARK   62  A    between atoms: _183  and  _186
REMARK   63  A    between atoms: _186  and  _187
REMARK   64  A    between atoms: _188  and  ZN_438
REMARK   65  A    between atoms: _192  and  _194
REMARK   66  A    between atoms: _194  and  _195
REMARK   67  A    between atoms: _194  and  _197
REMARK   68  A    between atoms: _197  and  _198
REMARK   69  A    between atoms: _201  and  _203
REMARK   70  A    between atoms: _203  and  _204
REMARK   71  A    between atoms: _203  and  _206
REMARK   72  A    between atoms: _209  and  _211
REMARK   73  A    between atoms: _211  and  _212
REMARK   74  A    between atoms: _211  and  _214
REMARK   75  A    between atoms: _214  and  _215
REMARK   76  A    between atoms: _220  and  _222
REMARK   77  A    between atoms: _222  and  _223
REMARK   78  A    between atoms: _222  and  _225
REMARK   79  A    between atoms: _225  and  _226
REMARK   80  A    between atoms: _232  and  _234
REMARK   81  A    between atoms: _234  and  _235
REMARK   82  A    between atoms: _237  and  _239
REMARK   83  A    between atoms: _239  and  _240
REMARK   84  A    between atoms: _239  and  _242
REMARK   85  A    between atoms: _242  and  _243
REMARK   86  A    between atoms: _243  and  _244
REMARK   87  A    between atoms: _244  and  _245
REMARK   88  A    between atoms: _245  and  _246
REMARK   89  A    between atoms: _250  and  _252
REMARK   90  A    between atoms: _252  and  _253
REMARK   91  A    between atoms: _252  and  _255
REMARK   92  A    between atoms: _258  and  _260
REMARK   93  A    between atoms: _260  and  _261
REMARK   94  A    between atoms: _260  and  _263
REMARK   95  A    between atoms: _263  and  _264
REMARK   96  A    between atoms: _264  and  _265
REMARK   97  A    between atoms: _270  and  _272
REMARK   98  A    between atoms: _272  and  _273
REMARK   99  A    between atoms: _272  and  _275
REMARK  100  A    between atoms: _275  and  _276
REMARK  101  A    between atoms: _279  and  _281
REMARK  102  A    between atoms: _281  and  _282
REMARK  103  A    between atoms: _285  and  _287
REMARK  104  A    between atoms: _287  and  _288
REMARK  105  A    between atoms: _287  and  _290
REMARK  106  A    between atoms: _293  and  _295
REMARK  107  A    between atoms: _295  and  _296
REMARK  108  A    between atoms: _295  and  _298
REMARK  109  A    between atoms: _298  and  _299
REMARK  110  A    between atoms: _302  and  _304
REMARK  111  A    between atoms: _304  and  _305
REMARK  112  A    between atoms: _307  and  _309
REMARK  113  A    between atoms: _309  and  _310
REMARK  114  A    between atoms: _312  and  _314
REMARK  115  A    between atoms: _314  and  _315
REMARK  116  A    between atoms: _314  and  _317
REMARK  117  A    between atoms: _317  and  _318
REMARK  118  A    between atoms: _320  and  _322
REMARK  119  A    between atoms: _322  and  _323
REMARK  120  A    between atoms: _322  and  _325
REMARK  121  A    between atoms: _325  and  _326
REMARK  122  A    between atoms: _329  and  _331
REMARK  123  A    between atoms: _331  and  _332
REMARK  124  A    between atoms: _331  and  _334
REMARK  125  A    between atoms: _334  and  _335
REMARK  126  A    between atoms: _338  and  _340
REMARK  127  A    between atoms: _340  and  _341
REMARK  128  A    between atoms: _340  and  _343
REMARK  129  A    between atoms: _343  and  _344
REMARK  130  A    between atoms: _348  and  _349
REMARK  131  A    between atoms: _355  and  _356
REMARK  132  A    between atoms: _361  and  _363
REMARK  133  A    between atoms: _363  and  _364
REMARK  134  A    between atoms: _363  and  _366
REMARK  135  A    between atoms: _366  and  _367
REMARK  136  A    between atoms: _370  and  _372
REMARK  137  A    between atoms: _372  and  _373
REMARK  138  A    between atoms: _372  and  _375
REMARK  139  A    between atoms: _375  and  _376
REMARK  140  A    between atoms: _379  and  _381
REMARK  141  A    between atoms: _381  and  _382
REMARK  142  A    between atoms: _381  and  _384
REMARK  143  A    between atoms: _386  and  _388
REMARK  144  A    between atoms: _388  and  _389
REMARK  145  A    between atoms: _388  and  _391
REMARK  146  A    between atoms: _394  and  _396
REMARK  147  A    between atoms: _396  and  _397
REMARK  148  A    between atoms: _396  and  _399
REMARK  149  A    between atoms: _399  and  _400
REMARK  150  A    between atoms: _410  and  _412
REMARK  151  A    between atoms: _412  and  _413
REMARK  152  A    between atoms: _412  and  _415
REMARK  153  A    between atoms: _415  and  _416
REMARK  154  A    between atoms: _421  and  _423
REMARK  155  A    between atoms: _423  and  _424
REMARK  156  A    between atoms: _423  and  _426
REMARK  157  A    between atoms: _426  and  _427
REMARK  158  A    between atoms: _427  and  _428
REMARK  159  A    between atoms: _428  and  _429
REMARK                            x       y       z     vdW  Elec       q    Type
REMARK                         _______ _______ _______ _____ _____    ______ ____
ROOT
ATOM      1  C   CYS A   1      15.175   9.208  23.935  0.00  0.00    +0.239 C 
ATOM      2  N   VAL A   2      15.023   7.919  24.244  0.00  0.00    -0.298 N 
ATOM      3  H   VAL A   2      15.797   7.415  24.722  0.00  0.00    +0.150 HD
ATOM      4  O   CYS A   1      14.268   9.922  23.528  0.00  0.00    -0.274 OA
ENDROOT
BRANCH   1   5
ATOM      5  CA  CYS A   1      16.543   9.799  24.058  0.00  0.00    +0.156 C 
BRANCH   5   6
ATOM      6  N   CYS A   1      17.611   8.815  24.262  0.00  0.00    -0.237 NA
ATOM      7  H   CYS A   1      17.688   8.028  23.586  0.00  0.00    +0.142 HD
ENDBRANCH   5   6
BRANCH   5   8
ATOM      8  CB  CYS A   1      16.867  10.620  22.800  0.00  0.00    +0.095 C 
ATOM      9  SG  CYS A   1      16.896   9.661  21.290  0.00  0.00    -0.080 S 
ENDBRANCH   5   8
ENDBRANCH   1   5
BRANCH   2  10
ATOM     10  CA  VAL A   2      13.783   7.195  23.923  0.00  0.00    +0.137 C 
BRANCH  10  11
ATOM     11  CB  VAL A   2      14.069   5.957  23.048  0.00  0.00    +0.026 C 
ATOM     12  CG2 VAL A   2      12.758   5.223  22.727  0.00  0.00    +0.002 C 
ATOM     13  CG1 VAL A   2      14.826   6.319  21.772  0.00  0.00    +0.002 C 
ENDBRANCH  10  11
BRANCH  10  14
ATOM     14  C   VAL A   2      13.015   6.746  25.158  0.00  0.00    +0.227 C 
ATOM     15  O   VAL A   2      13.561   6.108  26.037  0.00  0.00    -0.286 OA
ENDBRANCH  10  14
ENDBRANCH   2  10
TORSDOF 6
REMARK  Name = ../refined-set-2016/4z1j/4z1j_pocket.pdb
REMARK  159 active torsions:
REMARK  status: ('A' for Active; 'I' for Inactive)
REMARK    1  A    between atoms: _1  and  _3
REMARK    2  A    between atoms: _3  and  _4
REMARK    3  A    between atoms: _3  and  _6
REMARK    4  A    between atoms: _6  and  _7
REMARK    5  A    between atoms: _17  and  _19
REMARK    6  A    between atoms: _19  and  _20
REMARK    7  A    between atoms: _19  and  _22
REMARK    8  A    between atoms: _22  and  _23
REMARK    9  A    between atoms: _28  and  _29
REMARK   10  A    between atoms: _31  and  _33
REMARK   11  A    between atoms: _33  and  _34
REMARK   12  A    between atoms: _33  and  _36
REMARK   13  A    between atoms: _36  and  _37
REMARK   14  A    between atoms: _40  and  _41
REMARK   15  A    between atoms: _46  and  _48
REMARK   16  A    between atoms: _48  and  _49
REMARK   17  A    between atoms: _48  and  _51
REMARK   18  A    between atoms: _51  and  _52
REMARK   19  A    between atoms: _57  and  _59
REMARK   20  A    between atoms: _59  and  _60
REMARK   21  A    between atoms: _63  and  _65
REMARK   22  A    between atoms: _65  and  _66
REMARK   23  A    between atoms: _65  and  _68
REMARK   24  A    between atoms: _68  and  _69
REMARK   25  A    between atoms: _74  and  _76
REMARK   26  A    between atoms: _76  and  _77
REMARK   27  A    between atoms: _76  and  _79
REMARK   28  A    between atoms: _79  and  _80
REMARK   29  A    between atoms: _83  and  _85
REMARK   30  A    between atoms: _85  and  _86
REMARK   31  A    between atoms: _85  and  _88
REMARK   32  A    between atoms: _88  and  _89
REMARK   33  A    between atoms: _89  and  _90
REMARK   34  A    between atoms: _95  and  _97
REMARK   35  A    between atoms: _97  and  _98
REMARK   36  A    between atoms: _97  and  _100
REMARK   37  A    between atoms: _100  and  _101
REMARK   38  A    between atoms: _107  and  _109
REMARK   39  A    between atoms: _120  and  _123
REMARK   40  A    between atoms: _123  and  _124
REMARK   41  A    between atoms: _132  and  _133
REMARK   42  A    between atoms: _141  and  _143
REMARK   43  A    between atoms: _143  and  _144
REMARK   44  A    between atoms: _143  and  _146
REMARK   45  A    between atoms: _146  and  _147
REMARK   46  A    between atoms: _147  and  _148
REMARK   47  A    between atoms: _151  and  _153
REMARK   48  A    between atoms: _153  and  _154
REMARK   49  A    between atoms: _153  and  _156
REMARK   50  A    between atoms: _156  and  _157
REMARK   51  A    between atoms: _162  and  _164
REMARK   52  A    between atoms: _164  and  _165
REMARK   53  A    between atoms: _164  and  _167
REMARK   54  A    between atoms: _167  and  _168
REMARK   55  A    between atoms: _168  and  _169
REMARK   56  A    between atoms: _172  and  _174
REMARK   57  A    between atoms: _174  and  _175
REMARK   58  A    between atoms: _174  and  _177
REMARK   59  A    between atoms: _177  and  _178
REMARK   60  A    between atoms: _181  and  _183
REMARK   61  A    between atoms: _183  and  _184
REMARK   62  A    between atoms: _183  and  _186
REMARK   63  A    between atoms: _186  and  _187
REMARK   64  A    between atoms: _188  and  ZN_438
REMARK   65  A    between atoms: _192  and  _194
REMARK   66  A    between atoms: _194  and  _195
REMARK   67  A    between atoms: _194  and  _197
REMARK   68  A    between atoms: _197  and  _198
REMARK   69  A    between atoms: _201  and  _203
REMARK   70  A    between atoms: _203  and  _204
REMARK   71  A    between atoms: _203  and  _206
REMARK   72  A    between atoms: _209  and  _211
REMARK   73  A    between atoms: _211  and  _212
REMARK   74  A    between atoms: _211  and  _214
REMARK   75  A    between atoms: _214  and  _215
REMARK   76  A    between atoms: _220  and  _222
REMARK   77  A    between atoms: _222  and  _223
REMARK   78  A    between atoms: _222  and  _225
REMARK   79  A    between atoms: _225  and  _226
REMARK   80  A    between atoms: _232  and  _234
REMARK   81  A    between atoms: _234  and  _235
REMARK   82  A    between atoms: _237  and  _239
REMARK   83  A    between atoms: _239  and  _240
REMARK   84  A    between atoms: _239  and  _242
REMARK   85  A    between atoms: _242  and  _243
REMARK   86  A    between atoms: _243  and  _244
REMARK   87  A    between atoms: _244  and  _245
REMARK   88  A    between atoms: _245  and  _246
REMARK   89  A    between atoms: _250  and  _252
REMARK   90  A    between atoms: _252  and  _253
REMARK   91  A    between atoms: _252  and  _255
REMARK   92  A    between atoms: _258  and  _260
REMARK   93  A    between atoms: _260  and  _261
REMARK   94  A    between atoms: _260  and  _263
REMARK   95  A    between atoms: _263  and  _264
REMARK   96  A    between atoms: _264  and  _265
REMARK   97  A    between atoms: _270  and  _272
REMARK   98  A    between atoms: _272  and  _273
REMARK   99  A    between atoms: _272  and  _275
REMARK  100  A    between atoms: _275  and  _276
REMARK  101  A    between atoms: _279  and  _281
REMARK  102  A    between atoms: _281  and  _282
REMARK  103  A    between atoms: _285  and  _287
REMARK  104  A    between atoms: _287  and  _288
REMARK  105  A    between atoms: _287  and  _290
REMARK  106  A    between atoms: _293  and  _295
REMARK  107  A    between atoms: _295  and  _296
REMARK  108  A    between atoms: _295  and  _298
REMARK  109  A    between atoms: _298  and  _299
REMARK  110  A    between atoms: _302  and  _304
REMARK  111  A    between atoms: _304  and  _305
REMARK  112  A    between atoms: _307  and  _309
REMARK  113  A    between atoms: _309  and  _310
REMARK  114  A    between atoms: _312  and  _314
REMARK  115  A    between atoms: _314  and  _315
REMARK  116  A    between atoms: _314  and  _317
REMARK  117  A    between atoms: _317  and  _318
REMARK  118  A    between atoms: _320  and  _322
REMARK  119  A    between atoms: _322  and  _323
REMARK  120  A    between atoms: _322  and  _325
REMARK  121  A    between atoms: _325  and  _326
REMARK  122  A    between atoms: _329  and  _331
REMARK  123  A    between atoms: _331  and  _332
REMARK  124  A    between atoms: _331  and  _334
REMARK  125  A    between atoms: _334  and  _335
REMARK  126  A    between atoms: _338  and  _340
REMARK  127  A    between atoms: _340  and  _341
REMARK  128  A    between atoms: _340  and  _343
REMARK  129  A    between atoms: _343  and  _344
REMARK  130  A    between atoms: _348  and  _349
REMARK  131  A    between atoms: _355  and  _356
REMARK  132  A    between atoms: _361  and  _363
REMARK  133  A    between atoms: _363  and  _364
REMARK  134  A    between atoms: _363  and  _366
REMARK  135  A    between atoms: _366  and  _367
REMARK  136  A    between atoms: _370  and  _372
REMARK  137  A    between atoms: _372  and  _373
REMARK  138  A    between atoms: _372  and  _375
REMARK  139  A    between atoms: _375  and  _376
REMARK  140  A    between atoms: _379  and  _381
REMARK  141  A    between atoms: _381  and  _382
REMARK  142  A    between atoms: _381  and  _384
REMARK  143  A    between atoms: _386  and  _388
REMARK  144  A    between atoms: _388  and  _389
REMARK  145  A    between atoms: _388  and  _391
REMARK  146  A    between atoms: _394  and  _396
REMARK  147  A    between atoms: _396  and  _397
REMARK  148  A    between atoms: _396  and  _399
REMARK  149  A    between atoms: _399  and  _400
REMARK  150  A    between atoms: _410  and  _412
REMARK  151  A    between atoms: _412  and  _413
REMARK  152  A    between atoms: _412  and  _415
REMARK  153  A    between atoms: _415  and  _416
REMARK  154  A    between atoms: _421  and  _423
REMARK  155  A    between atoms: _423  and  _424
REMARK  156  A    between atoms: _423  and  _426
REMARK  157  A    between atoms: _426  and  _427
REMARK  158  A    between atoms: _427  and  _428
REMARK  159  A    between atoms: _428  and  _429
REMARK                            x       y       z     vdW  Elec       q    Type
REMARK                         _______ _______ _______ _____ _____    ______ ____
ROOT
ATOM      1  CG  TRP A   1      12.288   1.700  24.166  0.00  0.00    -0.002 A 
ATOM      2  CD1 TRP A   1      13.549   2.306  24.356  0.00  0.00    +0.068 A 
ATOM      3  NE1 TRP A   1      14.237   2.267  23.176  0.00  0.00    -0.352 N 
ATOM      4  HE1 TRP A   1      15.202   2.631  23.045  0.00  0.00    +0.166 HD
ATOM      5  CE2 TRP A   1      13.491   1.688  22.192  0.00  0.00    +0.056 A 
ATOM      6  CZ2 TRP A   1      13.762   1.445  20.860  0.00  0.00    +0.017 A 
ATOM      7  CH2 TRP A   1      12.766   0.823  20.133  0.00  0.00    +0.001 A 
ATOM      8  CZ3 TRP A   1      11.550   0.428  20.708  0.00  0.00    +0.000 A 
ATOM      9  CE3 TRP A   1      11.268   0.683  22.018  0.00  0.00    +0.001 A 
ATOM     10  CD2 TRP A   1      12.226   1.301  22.795  0.00  0.00    +0.013 A 
ENDROOT
BRANCH   1  11
ATOM     11  CB  TRP A   1      11.171   1.586  25.146  0.00  0.00    +0.053 C 
BRANCH  11  12
ATOM     12  CA  TRP A   1      10.169   2.750  24.936  0.00  0.00    +0.137 C 
BRANCH  12  13
ATOM     13  N   TRP A   1      10.603   3.965  25.622  0.00  0.00    -0.239 NA
ATOM     14  H   TRP A   1      11.217   3.880  26.457  0.00  0.00    +0.142 HD
ENDBRANCH  12  13
BRANCH  12  15
ATOM     15  C   TRP A   1       8.797   2.349  25.444  0.00  0.00    +0.224 C 
ATOM     16  O   TRP A   1       8.558   2.309  26.646  0.00  0.00    -0.287 OA
ENDBRANCH  12  15
ENDBRANCH  11  12
ENDBRANCH   1  11
TORSDOF 4
REMARK  Name = ../refined-set-2016/4z1j/4z1j_pocket.pdb
REMARK  159 active torsions:
REMARK  status: ('A' for Active; 'I' for Inactive)
REMARK    1  A    between atoms: _1  and  _3
REMARK    2  A    between atoms: _3  and  _4
REMARK    3  A    between atoms: _3  and  _6
REMARK    4  A    between atoms: _6  and  _7
REMARK    5  A    between atoms: _17  and  _19
REMARK    6  A    between atoms: _19  and  _20
REMARK    7  A    between atoms: _19  and  _22
REMARK    8  A    between atoms: _22  and  _23
REMARK    9  A    between atoms: _28  and  _29
REMARK   10  A    between atoms: _31  and  _33
REMARK   11  A    between atoms: _33  and  _34
REMARK   12  A    between atoms: _33  and  _36
REMARK   13  A    between atoms: _36  and  _37
REMARK   14  A    between atoms: _40  and  _41
REMARK   15  A    between atoms: _46  and  _48
REMARK   16  A    between atoms: _48  and  _49
REMARK   17  A    between atoms: _48  and  _51
REMARK   18  A    between atoms: _51  and  _52
REMARK   19  A    between atoms: _57  and  _59
REMARK   20  A    between atoms: _59  and  _60
REMARK   21  A    between atoms: _63  and  _65
REMARK   22  A    between atoms: _65  and  _66
REMARK   23  A    between atoms: _65  and  _68
REMARK   24  A    between atoms: _68  and  _69
REMARK   25  A    between atoms: _74  and  _76
REMARK   26  A    between atoms: _76  and  _77
REMARK   27  A    between atoms: _76  and  _79
REMARK   28  A    between atoms: _79  and  _80
REMARK   29  A    between atoms: _83  and  _85
REMARK   30  A    between atoms: _85  and  _86
REMARK   31  A    between atoms: _85  and  _88
REMARK   32  A    between atoms: _88  and  _89
REMARK   33  A    between atoms: _89  and  _90
REMARK   34  A    between atoms: _95  and  _97
REMARK   35  A    between atoms: _97  and  _98
REMARK   36  A    between atoms: _97  and  _100
REMARK   37  A    between atoms: _100  and  _101
REMARK   38  A    between atoms: _107  and  _109
REMARK   39  A    between atoms: _120  and  _123
REMARK   40  A    between atoms: _123  and  _124
REMARK   41  A    between atoms: _132  and  _133
REMARK   42  A    between atoms: _141  and  _143
REMARK   43  A    between atoms: _143  and  _144
REMARK   44  A    between atoms: _143  and  _146
REMARK   45  A    between atoms: _146  and  _147
REMARK   46  A    between atoms: _147  and  _148
REMARK   47  A    between atoms: _151  and  _153
REMARK   48  A    between atoms: _153  and  _154
REMARK   49  A    between atoms: _153  and  _156
REMARK   50  A    between atoms: _156  and  _157
REMARK   51  A    between atoms: _162  and  _164
REMARK   52  A    between atoms: _164  and  _165
REMARK   53  A    between atoms: _164  and  _167
REMARK   54  A    between atoms: _167  and  _168
REMARK   55  A    between atoms: _168  and  _169
REMARK   56  A    between atoms: _172  and  _174
REMARK   57  A    between atoms: _174  and  _175
REMARK   58  A    between atoms: _174  and  _177
REMARK   59  A    between atoms: _177  and  _178
REMARK   60  A    between atoms: _181  and  _183
REMARK   61  A    between atoms: _183  and  _184
REMARK   62  A    between atoms: _183  and  _186
REMARK   63  A    between atoms: _186  and  _187
REMARK   64  A    between atoms: _188  and  ZN_438
REMARK   65  A    between atoms: _192  and  _194
REMARK   66  A    between atoms: _194  and  _195
REMARK   67  A    between atoms: _194  and  _197
REMARK   68  A    between atoms: _197  and  _198
REMARK   69  A    between atoms: _201  and  _203
REMARK   70  A    between atoms: _203  and  _204
REMARK   71  A    between atoms: _203  and  _206
REMARK   72  A    between atoms: _209  and  _211
REMARK   73  A    between atoms: _211  and  _212
REMARK   74  A    between atoms: _211  and  _214
REMARK   75  A    between atoms: _214  and  _215
REMARK   76  A    between atoms: _220  and  _222
REMARK   77  A    between atoms: _222  and  _223
REMARK   78  A    between atoms: _222  and  _225
REMARK   79  A    between atoms: _225  and  _226
REMARK   80  A    between atoms: _232  and  _234
REMARK   81  A    between atoms: _234  and  _235
REMARK   82  A    between atoms: _237  and  _239
REMARK   83  A    between atoms: _239  and  _240
REMARK   84  A    between atoms: _239  and  _242
REMARK   85  A    between atoms: _242  and  _243
REMARK   86  A    between atoms: _243  and  _244
REMARK   87  A    between atoms: _244  and  _245
REMARK   88  A    between atoms: _245  and  _246
REMARK   89  A    between atoms: _250  and  _252
REMARK   90  A    between atoms: _252  and  _253
REMARK   91  A    between atoms: _252  and  _255
REMARK   92  A    between atoms: _258  and  _260
REMARK   93  A    between atoms: _260  and  _261
REMARK   94  A    between atoms: _260  and  _263
REMARK   95  A    between atoms: _263  and  _264
REMARK   96  A    between atoms: _264  and  _265
REMARK   97  A    between atoms: _270  and  _272
REMARK   98  A    between atoms: _272  and  _273
REMARK   99  A    between atoms: _272  and  _275
REMARK  100  A    between atoms: _275  and  _276
REMARK  101  A    between atoms: _279  and  _281
REMARK  102  A    between atoms: _281  and  _282
REMARK  103  A    between atoms: _285  and  _287
REMARK  104  A    between atoms: _287  and  _288
REMARK  105  A    between atoms: _287  and  _290
REMARK  106  A    between atoms: _293  and  _295
REMARK  107  A    between atoms: _295  and  _296
REMARK  108  A    between atoms: _295  and  _298
REMARK  109  A    between atoms: _298  and  _299
REMARK  110  A    between atoms: _302  and  _304
REMARK  111  A    between atoms: _304  and  _305
REMARK  112  A    between atoms: _307  and  _309
REMARK  113  A    between atoms: _309  and  _310
REMARK  114  A    between atoms: _312  and  _314
REMARK  115  A    between atoms: _314  and  _315
REMARK  116  A    between atoms: _314  and  _317
REMARK  117  A    between atoms: _317  and  _318
REMARK  118  A    between atoms: _320  and  _322
REMARK  119  A    between atoms: _322  and  _323
REMARK  120  A    between atoms: _322  and  _325
REMARK  121  A    between atoms: _325  and  _326
REMARK  122  A    between atoms: _329  and  _331
REMARK  123  A    between atoms: _331  and  _332
REMARK  124  A    between atoms: _331  and  _334
REMARK  125  A    between atoms: _334  and  _335
REMARK  126  A    between atoms: _338  and  _340
REMARK  127  A    between atoms: _340  and  _341
REMARK  128  A    between atoms: _340  and  _343
REMARK  129  A    between atoms: _343  and  _344
REMARK  130  A    between atoms: _348  and  _349
REMARK  131  A    between atoms: _355  and  _356
REMARK  132  A    between atoms: _361  and  _363
REMARK  133  A    between atoms: _363  and  _364
REMARK  134  A    between atoms: _363  and  _366
REMARK  135  A    between atoms: _366  and  _367
REMARK  136  A    between atoms: _370  and  _372
REMARK  137  A    between atoms: _372  and  _373
REMARK  138  A    between atoms: _372  and  _375
REMARK  139  A    between atoms: _375  and  _376
REMARK  140  A    between atoms: _379  and  _381
REMARK  141  A    between atoms: _381  and  _382
REMARK  142  A    between atoms: _381  and  _384
REMARK  143  A    between atoms: _386  and  _388
REMARK  144  A    between atoms: _388  and  _389
REMARK  145  A    between atoms: _388  and  _391
REMARK  146  A    between atoms: _394  and  _396
REMARK  147  A    between atoms: _396  and  _397
REMARK  148  A    between atoms: _396  and  _399
REMARK  149  A    between atoms: _399  and  _400
REMARK  150  A    between atoms: _410  and  _412
REMARK  151  A    between atoms: _412  and  _413
REMARK  152  A    between atoms: _412  and  _415
REMARK  153  A    between atoms: _415  and  _416
REMARK  154  A    between atoms: _421  and  _423
REMARK  155  A    between atoms: _423  and  _424
REMARK  156  A    between atoms: _423  and  _426
REMARK  157  A    between atoms: _426  and  _427
REMARK  158  A    between atoms: _427  and  _428
REMARK  159  A    between atoms: _428  and  _429
REMARK                            x       y       z     vdW  Elec       q    Type
REMARK                         _______ _______ _______ _____ _____    ______ ____
ROOT
ATOM      1  CB  ASN A   1      19.052  -5.612  10.428  0.00  0.00    +0.110 C 
ENDROOT
BRANCH   1   2
ATOM      2  CG  ASN A   1      17.579  -5.810  10.174  0.00  0.00    +0.221 C 
ATOM      3  OD1 ASN A   1      16.928  -6.662  10.768  0.00  0.00    -0.275 OA
ATOM      4  ND2 ASN A   1      17.035  -4.999   9.291  0.00  0.00    -0.329 N 
ATOM      5 HD21 ASN A   1      16.020  -5.069   9.077  0.00  0.00    +0.145 HD
ATOM      6 HD22 ASN A   1      17.621  -4.289   8.807  0.00  0.00    +0.145 HD
ENDBRANCH   1   2
BRANCH   1   7
ATOM      7  CA  ASN A   1      19.584  -6.484  11.585  0.00  0.00    +0.142 C 
BRANCH   7   8
ATOM      8  N   ASN A   1      19.316  -7.903  11.345  0.00  0.00    -0.239 NA
ATOM      9  H   ASN A   1      18.410  -8.181  10.917  0.00  0.00    +0.142 HD
ENDBRANCH   7   8
BRANCH   7  10
ATOM     10  C   ASN A   1      19.008  -6.044  12.936  0.00  0.00    +0.225 C 
ATOM     11  O   ASN A   1      18.330  -5.015  13.021  0.00  0.00    -0.287 OA
ENDBRANCH   7  10
ENDBRANCH   1   7
TORSDOF 4
REMARK  Name = ../refined-set-2016/4z1j/4z1j_pocket.pdb
REMARK  159 active torsions:
REMARK  status: ('A' for Active; 'I' for Inactive)
REMARK    1  A    between atoms: _1  and  _3
REMARK    2  A    between atoms: _3  and  _4
REMARK    3  A    between atoms: _3  and  _6
REMARK    4  A    between atoms: _6  and  _7
REMARK    5  A    between atoms: _17  and  _19
REMARK    6  A    between atoms: _19  and  _20
REMARK    7  A    between atoms: _19  and  _22
REMARK    8  A    between atoms: _22  and  _23
REMARK    9  A    between atoms: _28  and  _29
REMARK   10  A    between atoms: _31  and  _33
REMARK   11  A    between atoms: _33  and  _34
REMARK   12  A    between atoms: _33  and  _36
REMARK   13  A    between atoms: _36  and  _37
REMARK   14  A    between atoms: _40  and  _41
REMARK   15  A    between atoms: _46  and  _48
REMARK   16  A    between atoms: _48  and  _49
REMARK   17  A    between atoms: _48  and  _51
REMARK   18  A    between atoms: _51  and  _52
REMARK   19  A    between atoms: _57  and  _59
REMARK   20  A    between atoms: _59  and  _60
REMARK   21  A    between atoms: _63  and  _65
REMARK   22  A    between atoms: _65  and  _66
REMARK   23  A    between atoms: _65  and  _68
REMARK   24  A    between atoms: _68  and  _69
REMARK   25  A    between atoms: _74  and  _76
REMARK   26  A    between atoms: _76  and  _77
REMARK   27  A    between atoms: _76  and  _79
REMARK   28  A    between atoms: _79  and  _80
REMARK   29  A    between atoms: _83  and  _85
REMARK   30  A    between atoms: _85  and  _86
REMARK   31  A    between atoms: _85  and  _88
REMARK   32  A    between atoms: _88  and  _89
REMARK   33  A    between atoms: _89  and  _90
REMARK   34  A    between atoms: _95  and  _97
REMARK   35  A    between atoms: _97  and  _98
REMARK   36  A    between atoms: _97  and  _100
REMARK   37  A    between atoms: _100  and  _101
REMARK   38  A    between atoms: _107  and  _109
REMARK   39  A    between atoms: _120  and  _123
REMARK   40  A    between atoms: _123  and  _124
REMARK   41  A    between atoms: _132  and  _133
REMARK   42  A    between atoms: _141  and  _143
REMARK   43  A    between atoms: _143  and  _144
REMARK   44  A    between atoms: _143  and  _146
REMARK   45  A    between atoms: _146  and  _147
REMARK   46  A    between atoms: _147  and  _148
REMARK   47  A    between atoms: _151  and  _153
REMARK   48  A    between atoms: _153  and  _154
REMARK   49  A    between atoms: _153  and  _156
REMARK   50  A    between atoms: _156  and  _157
REMARK   51  A    between atoms: _162  and  _164
REMARK   52  A    between atoms: _164  and  _165
REMARK   53  A    between atoms: _164  and  _167
REMARK   54  A    between atoms: _167  and  _168
REMARK   55  A    between atoms: _168  and  _169
REMARK   56  A    between atoms: _172  and  _174
REMARK   57  A    between atoms: _174  and  _175
REMARK   58  A    between atoms: _174  and  _177
REMARK   59  A    between atoms: _177  and  _178
REMARK   60  A    between atoms: _181  and  _183
REMARK   61  A    between atoms: _183  and  _184
REMARK   62  A    between atoms: _183  and  _186
REMARK   63  A    between atoms: _186  and  _187
REMARK   64  A    between atoms: _188  and  ZN_438
REMARK   65  A    between atoms: _192  and  _194
REMARK   66  A    between atoms: _194  and  _195
REMARK   67  A    between atoms: _194  and  _197
REMARK   68  A    between atoms: _197  and  _198
REMARK   69  A    between atoms: _201  and  _203
REMARK   70  A    between atoms: _203  and  _204
REMARK   71  A    between atoms: _203  and  _206
REMARK   72  A    between atoms: _209  and  _211
REMARK   73  A    between atoms: _211  and  _212
REMARK   74  A    between atoms: _211  and  _214
REMARK   75  A    between atoms: _214  and  _215
REMARK   76  A    between atoms: _220  and  _222
REMARK   77  A    between atoms: _222  and  _223
REMARK   78  A    between atoms: _222  and  _225
REMARK   79  A    between atoms: _225  and  _226
REMARK   80  A    between atoms: _232  and  _234
REMARK   81  A    between atoms: _234  and  _235
REMARK   82  A    between atoms: _237  and  _239
REMARK   83  A    between atoms: _239  and  _240
REMARK   84  A    between atoms: _239  and  _242
REMARK   85  A    between atoms: _242  and  _243
REMARK   86  A    between atoms: _243  and  _244
REMARK   87  A    between atoms: _244  and  _245
REMARK   88  A    between atoms: _245  and  _246
REMARK   89  A    between atoms: _250  and  _252
REMARK   90  A    between atoms: _252  and  _253
REMARK   91  A    between atoms: _252  and  _255
REMARK   92  A    between atoms: _258  and  _260
REMARK   93  A    between atoms: _260  and  _261
REMARK   94  A    between atoms: _260  and  _263
REMARK   95  A    between atoms: _263  and  _264
REMARK   96  A    between atoms: _264  and  _265
REMARK   97  A    between atoms: _270  and  _272
REMARK   98  A    between atoms: _272  and  _273
REMARK   99  A    between atoms: _272  and  _275
REMARK  100  A    between atoms: _275  and  _276
REMARK  101  A    between atoms: _279  and  _281
REMARK  102  A    between atoms: _281  and  _282
REMARK  103  A    between atoms: _285  and  _287
REMARK  104  A    between atoms: _287  and  _288
REMARK  105  A    between atoms: _287  and  _290
REMARK  106  A    between atoms: _293  and  _295
REMARK  107  A    between atoms: _295  and  _296
REMARK  108  A    between atoms: _295  and  _298
REMARK  109  A    between atoms: _298  and  _299
REMARK  110  A    between atoms: _302  and  _304
REMARK  111  A    between atoms: _304  and  _305
REMARK  112  A    between atoms: _307  and  _309
REMARK  113  A    between atoms: _309  and  _310
REMARK  114  A    between atoms: _312  and  _314
REMARK  115  A    between atoms: _314  and  _315
REMARK  116  A    between atoms: _314  and  _317
REMARK  117  A    between atoms: _317  and  _318
REMARK  118  A    between atoms: _320  and  _322
REMARK  119  A    between atoms: _322  and  _323
REMARK  120  A    between atoms: _322  and  _325
REMARK  121  A    between atoms: _325  and  _326
REMARK  122  A    between atoms: _329  and  _331
REMARK  123  A    between atoms: _331  and  _332
REMARK  124  A    between atoms: _331  and  _334
REMARK  125  A    between atoms: _334  and  _335
REMARK  126  A    between atoms: _338  and  _340
REMARK  127  A    between atoms: _340  and  _341
REMARK  128  A    between atoms: _340  and  _343
REMARK  129  A    between atoms: _343  and  _344
REMARK  130  A    between atoms: _348  and  _349
REMARK  131  A    between atoms: _355  and  _356
REMARK  132  A    between atoms: _361  and  _363
REMARK  133  A    between atoms: _363  and  _364
REMARK  134  A    between atoms: _363  and  _366
REMARK  135  A    between atoms: _366  and  _367
REMARK  136  A    between atoms: _370  and  _372
REMARK  137  A    between atoms: _372  and  _373
REMARK  138  A    between atoms: _372  and  _375
REMARK  139  A    between atoms: _375  and  _376
REMARK  140  A    between atoms: _379  and  _381
REMARK  141  A    between atoms: _381  and  _382
REMARK  142  A    between atoms: _381  and  _384
REMARK  143  A    between atoms: _386  and  _388
REMARK  144  A    between atoms: _388  and  _389
REMARK  145  A    between atoms: _388  and  _391
REMARK  146  A    between atoms: _394  and  _396
REMARK  147  A    between atoms: _396  and  _397
REMARK  148  A    between atoms: _396  and  _399
REMARK  149  A    between atoms: _399  and  _400
REMARK  150  A    between atoms: _410  and  _412
REMARK  151  A    between atoms: _412  and  _413
REMARK  152  A    between atoms: _412  and  _415
REMARK  153  A    between atoms: _415  and  _416
REMARK  154  A    between atoms: _421  and  _423
REMARK  155  A    between atoms: _423  and  _424
REMARK  156  A    between atoms: _423  and  _426
REMARK  157  A    between atoms: _426  and  _427
REMARK  158  A    between atoms: _427  and  _428
REMARK  159  A    between atoms: _428  and  _429
REMARK                            x       y       z     vdW  Elec       q    Type
REMARK                         _______ _______ _______ _____ _____    ______ ____
ROOT
ATOM      1  NE  ARG A   1      23.220  -2.098  21.182  0.00  0.00    -0.265 N 
ATOM      2  CZ  ARG A   1      23.429  -1.082  22.004  0.00  0.00    +0.342 C 
ATOM      3  NH2 ARG A   1      24.642  -0.842  22.493  0.00  0.00    -0.292 N 
ATOM      4 HH21 ARG A   1      24.793  -0.040  23.138  0.00  0.00    +0.255 HD
ATOM      5 HH22 ARG A   1      25.439  -1.456  22.230  0.00  0.00    +0.255 HD
ATOM      6  NH1 ARG A   1      22.448  -0.298  22.383  0.00  0.00    -0.292 N 
ATOM      7 HH11 ARG A   1      22.636   0.494  23.030  0.00  0.00    +0.255 HD
ATOM      8 HH12 ARG A   1      21.482  -0.469  22.037  0.00  0.00    +0.255 HD
ATOM      9  HE  ARG A   1      24.024  -2.735  21.011  0.00  0.00    +0.259 HD
ENDROOT
BRANCH   1  10
ATOM     10  CD  ARG A   1      21.967  -2.414  20.488  0.00  0.00    +0.174 C 
BRANCH  10  11
ATOM     11  CG  ARG A   1      22.066  -3.768  19.826  0.00  0.00    +0.045 C 
BRANCH  11  12
ATOM     12  CB  ARG A   1      20.960  -4.008  18.832  0.00  0.00    +0.029 C 
BRANCH  12  13
ATOM     13  CA  ARG A   1      20.895  -5.458  18.334  0.00  0.00    +0.133 C 
BRANCH  13  14
ATOM     14  N   ARG A   1      19.942  -5.569  17.228  0.00  0.00    -0.239 NA
ATOM     15  H   ARG A   1      19.147  -4.899  17.203  0.00  0.00    +0.142 HD
ENDBRANCH  13  14
BRANCH  13  16
ATOM     16  C   ARG A   1      20.409  -6.389  19.454  0.00  0.00    +0.224 C 
ATOM     17  O   ARG A   1      19.208  -6.370  19.777  0.00  0.00    -0.287 OA
ENDBRANCH  13  16
ENDBRANCH  12  13
ENDBRANCH  11  12
ENDBRANCH  10  11
ENDBRANCH   1  10
TORSDOF 6
REMARK  Name = ../refined-set-2016/4z1j/4z1j_pocket.pdb
REMARK  159 active torsions:
REMARK  status: ('A' for Active; 'I' for Inactive)
REMARK    1  A    between atoms: _1  and  _3
REMARK    2  A    between atoms: _3  and  _4
REMARK    3  A    between atoms: _3  and  _6
REMARK    4  A    between atoms: _6  and  _7
REMARK    5  A    between atoms: _17  and  _19
REMARK    6  A    between atoms: _19  and  _20
REMARK    7  A    between atoms: _19  and  _22
REMARK    8  A    between atoms: _22  and  _23
REMARK    9  A    between atoms: _28  and  _29
REMARK   10  A    between atoms: _31  and  _33
REMARK   11  A    between atoms: _33  and  _34
REMARK   12  A    between atoms: _33  and  _36
REMARK   13  A    between atoms: _36  and  _37
REMARK   14  A    between atoms: _40  and  _41
REMARK   15  A    between atoms: _46  and  _48
REMARK   16  A    between atoms: _48  and  _49
REMARK   17  A    between atoms: _48  and  _51
REMARK   18  A    between atoms: _51  and  _52
REMARK   19  A    between atoms: _57  and  _59
REMARK   20  A    between atoms: _59  and  _60
REMARK   21  A    between atoms: _63  and  _65
REMARK   22  A    between atoms: _65  and  _66
REMARK   23  A    between atoms: _65  and  _68
REMARK   24  A    between atoms: _68  and  _69
REMARK   25  A    between atoms: _74  and  _76
REMARK   26  A    between atoms: _76  and  _77
REMARK   27  A    between atoms: _76  and  _79
REMARK   28  A    between atoms: _79  and  _80
REMARK   29  A    between atoms: _83  and  _85
REMARK   30  A    between atoms: _85  and  _86
REMARK   31  A    between atoms: _85  and  _88
REMARK   32  A    between atoms: _88  and  _89
REMARK   33  A    between atoms: _89  and  _90
REMARK   34  A    between atoms: _95  and  _97
REMARK   35  A    between atoms: _97  and  _98
REMARK   36  A    between atoms: _97  and  _100
REMARK   37  A    between atoms: _100  and  _101
REMARK   38  A    between atoms: _107  and  _109
REMARK   39  A    between atoms: _120  and  _123
REMARK   40  A    between atoms: _123  and  _124
REMARK   41  A    between atoms: _132  and  _133
REMARK   42  A    between atoms: _141  and  _143
REMARK   43  A    between atoms: _143  and  _144
REMARK   44  A    between atoms: _143  and  _146
REMARK   45  A    between atoms: _146  and  _147
REMARK   46  A    between atoms: _147  and  _148
REMARK   47  A    between atoms: _151  and  _153
REMARK   48  A    between atoms: _153  and  _154
REMARK   49  A    between atoms: _153  and  _156
REMARK   50  A    between atoms: _156  and  _157
REMARK   51  A    between atoms: _162  and  _164
REMARK   52  A    between atoms: _164  and  _165
REMARK   53  A    between atoms: _164  and  _167
REMARK   54  A    between atoms: _167  and  _168
REMARK   55  A    between atoms: _168  and  _169
REMARK   56  A    between atoms: _172  and  _174
REMARK   57  A    between atoms: _174  and  _175
REMARK   58  A    between atoms: _174  and  _177
REMARK   59  A    between atoms: _177  and  _178
REMARK   60  A    between atoms: _181  and  _183
REMARK   61  A    between atoms: _183  and  _184
REMARK   62  A    between atoms: _183  and  _186
REMARK   63  A    between atoms: _186  and  _187
REMARK   64  A    between atoms: _188  and  ZN_438
REMARK   65  A    between atoms: _192  and  _194
REMARK   66  A    between atoms: _194  and  _195
REMARK   67  A    between atoms: _194  and  _197
REMARK   68  A    between atoms: _197  and  _198
REMARK   69  A    between atoms: _201  and  _203
REMARK   70  A    between atoms: _203  and  _204
REMARK   71  A    between atoms: _203  and  _206
REMARK   72  A    between atoms: _209  and  _211
REMARK   73  A    between atoms: _211  and  _212
REMARK   74  A    between atoms: _211  and  _214
REMARK   75  A    between atoms: _214  and  _215
REMARK   76  A    between atoms: _220  and  _222
REMARK   77  A    between atoms: _222  and  _223
REMARK   78  A    between atoms: _222  and  _225
REMARK   79  A    between atoms: _225  and  _226
REMARK   80  A    between atoms: _232  and  _234
REMARK   81  A    between atoms: _234  and  _235
REMARK   82  A    between atoms: _237  and  _239
REMARK   83  A    between atoms: _239  and  _240
REMARK   84  A    between atoms: _239  and  _242
REMARK   85  A    between atoms: _242  and  _243
REMARK   86  A    between atoms: _243  and  _244
REMARK   87  A    between atoms: _244  and  _245
REMARK   88  A    between atoms: _245  and  _246
REMARK   89  A    between atoms: _250  and  _252
REMARK   90  A    between atoms: _252  and  _253
REMARK   91  A    between atoms: _252  and  _255
REMARK   92  A    between atoms: _258  and  _260
REMARK   93  A    between atoms: _260  and  _261
REMARK   94  A    between atoms: _260  and  _263
REMARK   95  A    between atoms: _263  and  _264
REMARK   96  A    between atoms: _264  and  _265
REMARK   97  A    between atoms: _270  and  _272
REMARK   98  A    between atoms: _272  and  _273
REMARK   99  A    between atoms: _272  and  _275
REMARK  100  A    between atoms: _275  and  _276
REMARK  101  A    between atoms: _279  and  _281
REMARK  102  A    between atoms: _281  and  _282
REMARK  103  A    between atoms: _285  and  _287
REMARK  104  A    between atoms: _287  and  _288
REMARK  105  A    between atoms: _287  and  _290
REMARK  106  A    between atoms: _293  and  _295
REMARK  107  A    between atoms: _295  and  _296
REMARK  108  A    between atoms: _295  and  _298
REMARK  109  A    between atoms: _298  and  _299
REMARK  110  A    between atoms: _302  and  _304
REMARK  111  A    between atoms: _304  and  _305
REMARK  112  A    between atoms: _307  and  _309
REMARK  113  A    between atoms: _309  and  _310
REMARK  114  A    between atoms: _312  and  _314
REMARK  115  A    between atoms: _314  and  _315
REMARK  116  A    between atoms: _314  and  _317
REMARK  117  A    between atoms: _317  and  _318
REMARK  118  A    between atoms: _320  and  _322
REMARK  119  A    between atoms: _322  and  _323
REMARK  120  A    between atoms: _322  and  _325
REMARK  121  A    between atoms: _325  and  _326
REMARK  122  A    between atoms: _329  and  _331
REMARK  123  A    between atoms: _331  and  _332
REMARK  124  A    between atoms: _331  and  _334
REMARK  125  A    between atoms: _334  and  _335
REMARK  126  A    between atoms: _338  and  _340
REMARK  127  A    between atoms: _340  and  _341
REMARK  128  A    between atoms: _340  and  _343
REMARK  129  A    between atoms: _343  and  _344
REMARK  130  A    between atoms: _348  and  _349
REMARK  131  A    between atoms: _355  and  _356
REMARK  132  A    between atoms: _361  and  _363
REMARK  133  A    between atoms: _363  and  _364
REMARK  134  A    between atoms: _363  and  _366
REMARK  135  A    between atoms: _366  and  _367
REMARK  136  A    between atoms: _370  and  _372
REMARK  137  A    between atoms: _372  and  _373
REMARK  138  A    between atoms: _372  and  _375
REMARK  139  A    between atoms: _375  and  _376
REMARK  140  A    between atoms: _379  and  _381
REMARK  141  A    between atoms: _381  and  _382
REMARK  142  A    between atoms: _381  and  _384
REMARK  143  A    between atoms: _386  and  _388
REMARK  144  A    between atoms: _388  and  _389
REMARK  145  A    between atoms: _388  and  _391
REMARK  146  A    between atoms: _394  and  _396
REMARK  147  A    between atoms: _396  and  _397
REMARK  148  A    between atoms: _396  and  _399
REMARK  149  A    between atoms: _399  and  _400
REMARK  150  A    between atoms: _410  and  _412
REMARK  151  A    between atoms: _412  and  _413
REMARK  152  A    between atoms: _412  and  _415
REMARK  153  A    between atoms: _415  and  _416
REMARK  154  A    between atoms: _421  and  _423
REMARK  155  A    between atoms: _423  and  _424
REMARK  156  A    between atoms: _423  and  _426
REMARK  157  A    between atoms: _426  and  _427
REMARK  158  A    between atoms: _427  and  _428
REMARK  159  A    between atoms: _428  and  _429
REMARK                            x       y       z     vdW  Elec       q    Type
REMARK                         _______ _______ _______ _____ _____    ______ ____
ROOT
ATOM      1  O   HOH     1      19.781  -2.349  15.793  0.00  0.00    +0.000 OA
ENDROOT
TORSDOF 0
REMARK  Name = ../refined-set-2016/4z1j/4z1j_pocket.pdb
REMARK  159 active torsions:
REMARK  status: ('A' for Active; 'I' for Inactive)
REMARK    1  A    between atoms: _1  and  _3
REMARK    2  A    between atoms: _3  and  _4
REMARK    3  A    between atoms: _3  and  _6
REMARK    4  A    between atoms: _6  and  _7
REMARK    5  A    between atoms: _17  and  _19
REMARK    6  A    between atoms: _19  and  _20
REMARK    7  A    between atoms: _19  and  _22
REMARK    8  A    between atoms: _22  and  _23
REMARK    9  A    between atoms: _28  and  _29
REMARK   10  A    between atoms: _31  and  _33
REMARK   11  A    between atoms: _33  and  _34
REMARK   12  A    between atoms: _33  and  _36
REMARK   13  A    between atoms: _36  and  _37
REMARK   14  A    between atoms: _40  and  _41
REMARK   15  A    between atoms: _46  and  _48
REMARK   16  A    between atoms: _48  and  _49
REMARK   17  A    between atoms: _48  and  _51
REMARK   18  A    between atoms: _51  and  _52
REMARK   19  A    between atoms: _57  and  _59
REMARK   20  A    between atoms: _59  and  _60
REMARK   21  A    between atoms: _63  and  _65
REMARK   22  A    between atoms: _65  and  _66
REMARK   23  A    between atoms: _65  and  _68
REMARK   24  A    between atoms: _68  and  _69
REMARK   25  A    between atoms: _74  and  _76
REMARK   26  A    between atoms: _76  and  _77
REMARK   27  A    between atoms: _76  and  _79
REMARK   28  A    between atoms: _79  and  _80
REMARK   29  A    between atoms: _83  and  _85
REMARK   30  A    between atoms: _85  and  _86
REMARK   31  A    between atoms: _85  and  _88
REMARK   32  A    between atoms: _88  and  _89
REMARK   33  A    between atoms: _89  and  _90
REMARK   34  A    between atoms: _95  and  _97
REMARK   35  A    between atoms: _97  and  _98
REMARK   36  A    between atoms: _97  and  _100
REMARK   37  A    between atoms: _100  and  _101
REMARK   38  A    between atoms: _107  and  _109
REMARK   39  A    between atoms: _120  and  _123
REMARK   40  A    between atoms: _123  and  _124
REMARK   41  A    between atoms: _132  and  _133
REMARK   42  A    between atoms: _141  and  _143
REMARK   43  A    between atoms: _143  and  _144
REMARK   44  A    between atoms: _143  and  _146
REMARK   45  A    between atoms: _146  and  _147
REMARK   46  A    between atoms: _147  and  _148
REMARK   47  A    between atoms: _151  and  _153
REMARK   48  A    between atoms: _153  and  _154
REMARK   49  A    between atoms: _153  and  _156
REMARK   50  A    between atoms: _156  and  _157
REMARK   51  A    between atoms: _162  and  _164
REMARK   52  A    between atoms: _164  and  _165
REMARK   53  A    between atoms: _164  and  _167
REMARK   54  A    between atoms: _167  and  _168
REMARK   55  A    between atoms: _168  and  _169
REMARK   56  A    between atoms: _172  and  _174
REMARK   57  A    between atoms: _174  and  _175
REMARK   58  A    between atoms: _174  and  _177
REMARK   59  A    between atoms: _177  and  _178
REMARK   60  A    between atoms: _181  and  _183
REMARK   61  A    between atoms: _183  and  _184
REMARK   62  A    between atoms: _183  and  _186
REMARK   63  A    between atoms: _186  and  _187
REMARK   64  A    between atoms: _188  and  ZN_438
REMARK   65  A    between atoms: _192  and  _194
REMARK   66  A    between atoms: _194  and  _195
REMARK   67  A    between atoms: _194  and  _197
REMARK   68  A    between atoms: _197  and  _198
REMARK   69  A    between atoms: _201  and  _203
REMARK   70  A    between atoms: _203  and  _204
REMARK   71  A    between atoms: _203  and  _206
REMARK   72  A    between atoms: _209  and  _211
REMARK   73  A    between atoms: _211  and  _212
REMARK   74  A    between atoms: _211  and  _214
REMARK   75  A    between atoms: _214  and  _215
REMARK   76  A    between atoms: _220  and  _222
REMARK   77  A    between atoms: _222  and  _223
REMARK   78  A    between atoms: _222  and  _225
REMARK   79  A    between atoms: _225  and  _226
REMARK   80  A    between atoms: _232  and  _234
REMARK   81  A    between atoms: _234  and  _235
REMARK   82  A    between atoms: _237  and  _239
REMARK   83  A    between atoms: _239  and  _240
REMARK   84  A    between atoms: _239  and  _242
REMARK   85  A    between atoms: _242  and  _243
REMARK   86  A    between atoms: _243  and  _244
REMARK   87  A    between atoms: _244  and  _245
REMARK   88  A    between atoms: _245  and  _246
REMARK   89  A    between atoms: _250  and  _252
REMARK   90  A    between atoms: _252  and  _253
REMARK   91  A    between atoms: _252  and  _255
REMARK   92  A    between atoms: _258  and  _260
REMARK   93  A    between atoms: _260  and  _261
REMARK   94  A    between atoms: _260  and  _263
REMARK   95  A    between atoms: _263  and  _264
REMARK   96  A    between atoms: _264  and  _265
REMARK   97  A    between atoms: _270  and  _272
REMARK   98  A    between atoms: _272  and  _273
REMARK   99  A    between atoms: _272  and  _275
REMARK  100  A    between atoms: _275  and  _276
REMARK  101  A    between atoms: _279  and  _281
REMARK  102  A    between atoms: _281  and  _282
REMARK  103  A    between atoms: _285  and  _287
REMARK  104  A    between atoms: _287  and  _288
REMARK  105  A    between atoms: _287  and  _290
REMARK  106  A    between atoms: _293  and  _295
REMARK  107  A    between atoms: _295  and  _296
REMARK  108  A    between atoms: _295  and  _298
REMARK  109  A    between atoms: _298  and  _299
REMARK  110  A    between atoms: _302  and  _304
REMARK  111  A    between atoms: _304  and  _305
REMARK  112  A    between atoms: _307  and  _309
REMARK  113  A    between atoms: _309  and  _310
REMARK  114  A    between atoms: _312  and  _314
REMARK  115  A    between atoms: _314  and  _315
REMARK  116  A    between atoms: _314  and  _317
REMARK  117  A    between atoms: _317  and  _318
REMARK  118  A    between atoms: _320  and  _322
REMARK  119  A    between atoms: _322  and  _323
REMARK  120  A    between atoms: _322  and  _325
REMARK  121  A    between atoms: _325  and  _326
REMARK  122  A    between atoms: _329  and  _331
REMARK  123  A    between atoms: _331  and  _332
REMARK  124  A    between atoms: _331  and  _334
REMARK  125  A    between atoms: _334  and  _335
REMARK  126  A    between atoms: _338  and  _340
REMARK  127  A    between atoms: _340  and  _341
REMARK  128  A    between atoms: _340  and  _343
REMARK  129  A    between atoms: _343  and  _344
REMARK  130  A    between atoms: _348  and  _349
REMARK  131  A    between atoms: _355  and  _356
REMARK  132  A    between atoms: _361  and  _363
REMARK  133  A    between atoms: _363  and  _364
REMARK  134  A    between atoms: _363  and  _366
REMARK  135  A    between atoms: _366  and  _367
REMARK  136  A    between atoms: _370  and  _372
REMARK  137  A    between atoms: _372  and  _373
REMARK  138  A    between atoms: _372  and  _375
REMARK  139  A    between atoms: _375  and  _376
REMARK  140  A    between atoms: _379  and  _381
REMARK  141  A    between atoms: _381  and  _382
REMARK  142  A    between atoms: _381  and  _384
REMARK  143  A    between atoms: _386  and  _388
REMARK  144  A    between atoms: _388  and  _389
REMARK  145  A    between atoms: _388  and  _391
REMARK  146  A    between atoms: _394  and  _396
REMARK  147  A    between atoms: _396  and  _397
REMARK  148  A    between atoms: _396  and  _399
REMARK  149  A    between atoms: _399  and  _400
REMARK  150  A    between atoms: _410  and  _412
REMARK  151  A    between atoms: _412  and  _413
REMARK  152  A    between atoms: _412  and  _415
REMARK  153  A    between atoms: _415  and  _416
REMARK  154  A    between atoms: _421  and  _423
REMARK  155  A    between atoms: _423  and  _424
REMARK  156  A    between atoms: _423  and  _426
REMARK  157  A    between atoms: _426  and  _427
REMARK  158  A    between atoms: _427  and  _428
REMARK  159  A    between atoms: _428  and  _429
REMARK                            x       y       z     vdW  Elec       q    Type
REMARK                         _______ _______ _______ _____ _____    ______ ____
ROOT
ATOM      1  O   HOH     1      21.986   6.385  12.216  0.00  0.00    +0.000 OA
ENDROOT
TORSDOF 0
REMARK  Name = ../refined-set-2016/4z1j/4z1j_pocket.pdb
REMARK  159 active torsions:
REMARK  status: ('A' for Active; 'I' for Inactive)
REMARK    1  A    between atoms: _1  and  _3
REMARK    2  A    between atoms: _3  and  _4
REMARK    3  A    between atoms: _3  and  _6
REMARK    4  A    between atoms: _6  and  _7
REMARK    5  A    between atoms: _17  and  _19
REMARK    6  A    between atoms: _19  and  _20
REMARK    7  A    between atoms: _19  and  _22
REMARK    8  A    between atoms: _22  and  _23
REMARK    9  A    between atoms: _28  and  _29
REMARK   10  A    between atoms: _31  and  _33
REMARK   11  A    between atoms: _33  and  _34
REMARK   12  A    between atoms: _33  and  _36
REMARK   13  A    between atoms: _36  and  _37
REMARK   14  A    between atoms: _40  and  _41
REMARK   15  A    between atoms: _46  and  _48
REMARK   16  A    between atoms: _48  and  _49
REMARK   17  A    between atoms: _48  and  _51
REMARK   18  A    between atoms: _51  and  _52
REMARK   19  A    between atoms: _57  and  _59
REMARK   20  A    between atoms: _59  and  _60
REMARK   21  A    between atoms: _63  and  _65
REMARK   22  A    between atoms: _65  and  _66
REMARK   23  A    between atoms: _65  and  _68
REMARK   24  A    between atoms: _68  and  _69
REMARK   25  A    between atoms: _74  and  _76
REMARK   26  A    between atoms: _76  and  _77
REMARK   27  A    between atoms: _76  and  _79
REMARK   28  A    between atoms: _79  and  _80
REMARK   29  A    between atoms: _83  and  _85
REMARK   30  A    between atoms: _85  and  _86
REMARK   31  A    between atoms: _85  and  _88
REMARK   32  A    between atoms: _88  and  _89
REMARK   33  A    between atoms: _89  and  _90
REMARK   34  A    between atoms: _95  and  _97
REMARK   35  A    between atoms: _97  and  _98
REMARK   36  A    between atoms: _97  and  _100
REMARK   37  A    between atoms: _100  and  _101
REMARK   38  A    between atoms: _107  and  _109
REMARK   39  A    between atoms: _120  and  _123
REMARK   40  A    between atoms: _123  and  _124
REMARK   41  A    between atoms: _132  and  _133
REMARK   42  A    between atoms: _141  and  _143
REMARK   43  A    between atoms: _143  and  _144
REMARK   44  A    between atoms: _143  and  _146
REMARK   45  A    between atoms: _146  and  _147
REMARK   46  A    between atoms: _147  and  _148
REMARK   47  A    between atoms: _151  and  _153
REMARK   48  A    between atoms: _153  and  _154
REMARK   49  A    between atoms: _153  and  _156
REMARK   50  A    between atoms: _156  and  _157
REMARK   51  A    between atoms: _162  and  _164
REMARK   52  A    between atoms: _164  and  _165
REMARK   53  A    between atoms: _164  and  _167
REMARK   54  A    between atoms: _167  and  _168
REMARK   55  A    between atoms: _168  and  _169
REMARK   56  A    between atoms: _172  and  _174
REMARK   57  A    between atoms: _174  and  _175
REMARK   58  A    between atoms: _174  and  _177
REMARK   59  A    between atoms: _177  and  _178
REMARK   60  A    between atoms: _181  and  _183
REMARK   61  A    between atoms: _183  and  _184
REMARK   62  A    between atoms: _183  and  _186
REMARK   63  A    between atoms: _186  and  _187
REMARK   64  A    between atoms: _188  and  ZN_438
REMARK   65  A    between atoms: _192  and  _194
REMARK   66  A    between atoms: _194  and  _195
REMARK   67  A    between atoms: _194  and  _197
REMARK   68  A    between atoms: _197  and  _198
REMARK   69  A    between atoms: _201  and  _203
REMARK   70  A    between atoms: _203  and  _204
REMARK   71  A    between atoms: _203  and  _206
REMARK   72  A    between atoms: _209  and  _211
REMARK   73  A    between atoms: _211  and  _212
REMARK   74  A    between atoms: _211  and  _214
REMARK   75  A    between atoms: _214  and  _215
REMARK   76  A    between atoms: _220  and  _222
REMARK   77  A    between atoms: _222  and  _223
REMARK   78  A    between atoms: _222  and  _225
REMARK   79  A    between atoms: _225  and  _226
REMARK   80  A    between atoms: _232  and  _234
REMARK   81  A    between atoms: _234  and  _235
REMARK   82  A    between atoms: _237  and  _239
REMARK   83  A    between atoms: _239  and  _240
REMARK   84  A    between atoms: _239  and  _242
REMARK   85  A    between atoms: _242  and  _243
REMARK   86  A    between atoms: _243  and  _244
REMARK   87  A    between atoms: _244  and  _245
REMARK   88  A    between atoms: _245  and  _246
REMARK   89  A    between atoms: _250  and  _252
REMARK   90  A    between atoms: _252  and  _253
REMARK   91  A    between atoms: _252  and  _255
REMARK   92  A    between atoms: _258  and  _260
REMARK   93  A    between atoms: _260  and  _261
REMARK   94  A    between atoms: _260  and  _263
REMARK   95  A    between atoms: _263  and  _264
REMARK   96  A    between atoms: _264  and  _265
REMARK   97  A    between atoms: _270  and  _272
REMARK   98  A    between atoms: _272  and  _273
REMARK   99  A    between atoms: _272  and  _275
REMARK  100  A    between atoms: _275  and  _276
REMARK  101  A    between atoms: _279  and  _281
REMARK  102  A    between atoms: _281  and  _282
REMARK  103  A    between atoms: _285  and  _287
REMARK  104  A    between atoms: _287  and  _288
REMARK  105  A    between atoms: _287  and  _290
REMARK  106  A    between atoms: _293  and  _295
REMARK  107  A    between atoms: _295  and  _296
REMARK  108  A    between atoms: _295  and  _298
REMARK  109  A    between atoms: _298  and  _299
REMARK  110  A    between atoms: _302  and  _304
REMARK  111  A    between atoms: _304  and  _305
REMARK  112  A    between atoms: _307  and  _309
REMARK  113  A    between atoms: _309  and  _310
REMARK  114  A    between atoms: _312  and  _314
REMARK  115  A    between atoms: _314  and  _315
REMARK  116  A    between atoms: _314  and  _317
REMARK  117  A    between atoms: _317  and  _318
REMARK  118  A    between atoms: _320  and  _322
REMARK  119  A    between atoms: _322  and  _323
REMARK  120  A    between atoms: _322  and  _325
REMARK  121  A    between atoms: _325  and  _326
REMARK  122  A    between atoms: _329  and  _331
REMARK  123  A    between atoms: _331  and  _332
REMARK  124  A    between atoms: _331  and  _334
REMARK  125  A    between atoms: _334  and  _335
REMARK  126  A    between atoms: _338  and  _340
REMARK  127  A    between atoms: _340  and  _341
REMARK  128  A    between atoms: _340  and  _343
REMARK  129  A    between atoms: _343  and  _344
REMARK  130  A    between atoms: _348  and  _349
REMARK  131  A    between atoms: _355  and  _356
REMARK  132  A    between atoms: _361  and  _363
REMARK  133  A    between atoms: _363  and  _364
REMARK  134  A    between atoms: _363  and  _366
REMARK  135  A    between atoms: _366  and  _367
REMARK  136  A    between atoms: _370  and  _372
REMARK  137  A    between atoms: _372  and  _373
REMARK  138  A    between atoms: _372  and  _375
REMARK  139  A    between atoms: _375  and  _376
REMARK  140  A    between atoms: _379  and  _381
REMARK  141  A    between atoms: _381  and  _382
REMARK  142  A    between atoms: _381  and  _384
REMARK  143  A    between atoms: _386  and  _388
REMARK  144  A    between atoms: _388  and  _389
REMARK  145  A    between atoms: _388  and  _391
REMARK  146  A    between atoms: _394  and  _396
REMARK  147  A    between atoms: _396  and  _397
REMARK  148  A    between atoms: _396  and  _399
REMARK  149  A    between atoms: _399  and  _400
REMARK  150  A    between atoms: _410  and  _412
REMARK  151  A    between atoms: _412  and  _413
REMARK  152  A    between atoms: _412  and  _415
REMARK  153  A    between atoms: _415  and  _416
REMARK  154  A    between atoms: _421  and  _423
REMARK  155  A    between atoms: _423  and  _424
REMARK  156  A    between atoms: _423  and  _426
REMARK  157  A    between atoms: _426  and  _427
REMARK  158  A    between atoms: _427  and  _428
REMARK  159  A    between atoms: _428  and  _429
REMARK                            x       y       z     vdW  Elec       q    Type
REMARK                         _______ _______ _______ _____ _____    ______ ____
ROOT
ATOM      1  O   HOH     1      13.957   7.621   6.518  0.00  0.00    +0.000 OA
ENDROOT
TORSDOF 0
REMARK  Name = ../refined-set-2016/4z1j/4z1j_pocket.pdb
REMARK  159 active torsions:
REMARK  status: ('A' for Active; 'I' for Inactive)
REMARK    1  A    between atoms: _1  and  _3
REMARK    2  A    between atoms: _3  and  _4
REMARK    3  A    between atoms: _3  and  _6
REMARK    4  A    between atoms: _6  and  _7
REMARK    5  A    between atoms: _17  and  _19
REMARK    6  A    between atoms: _19  and  _20
REMARK    7  A    between atoms: _19  and  _22
REMARK    8  A    between atoms: _22  and  _23
REMARK    9  A    between atoms: _28  and  _29
REMARK   10  A    between atoms: _31  and  _33
REMARK   11  A    between atoms: _33  and  _34
REMARK   12  A    between atoms: _33  and  _36
REMARK   13  A    between atoms: _36  and  _37
REMARK   14  A    between atoms: _40  and  _41
REMARK   15  A    between atoms: _46  and  _48
REMARK   16  A    between atoms: _48  and  _49
REMARK   17  A    between atoms: _48  and  _51
REMARK   18  A    between atoms: _51  and  _52
REMARK   19  A    between atoms: _57  and  _59
REMARK   20  A    between atoms: _59  and  _60
REMARK   21  A    between atoms: _63  and  _65
REMARK   22  A    between atoms: _65  and  _66
REMARK   23  A    between atoms: _65  and  _68
REMARK   24  A    between atoms: _68  and  _69
REMARK   25  A    between atoms: _74  and  _76
REMARK   26  A    between atoms: _76  and  _77
REMARK   27  A    between atoms: _76  and  _79
REMARK   28  A    between atoms: _79  and  _80
REMARK   29  A    between atoms: _83  and  _85
REMARK   30  A    between atoms: _85  and  _86
REMARK   31  A    between atoms: _85  and  _88
REMARK   32  A    between atoms: _88  and  _89
REMARK   33  A    between atoms: _89  and  _90
REMARK   34  A    between atoms: _95  and  _97
REMARK   35  A    between atoms: _97  and  _98
REMARK   36  A    between atoms: _97  and  _100
REMARK   37  A    between atoms: _100  and  _101
REMARK   38  A    between atoms: _107  and  _109
REMARK   39  A    between atoms: _120  and  _123
REMARK   40  A    between atoms: _123  and  _124
REMARK   41  A    between atoms: _132  and  _133
REMARK   42  A    between atoms: _141  and  _143
REMARK   43  A    between atoms: _143  and  _144
REMARK   44  A    between atoms: _143  and  _146
REMARK   45  A    between atoms: _146  and  _147
REMARK   46  A    between atoms: _147  and  _148
REMARK   47  A    between atoms: _151  and  _153
REMARK   48  A    between atoms: _153  and  _154
REMARK   49  A    between atoms: _153  and  _156
REMARK   50  A    between atoms: _156  and  _157
REMARK   51  A    between atoms: _162  and  _164
REMARK   52  A    between atoms: _164  and  _165
REMARK   53  A    between atoms: _164  and  _167
REMARK   54  A    between atoms: _167  and  _168
REMARK   55  A    between atoms: _168  and  _169
REMARK   56  A    between atoms: _172  and  _174
REMARK   57  A    between atoms: _174  and  _175
REMARK   58  A    between atoms: _174  and  _177
REMARK   59  A    between atoms: _177  and  _178
REMARK   60  A    between atoms: _181  and  _183
REMARK   61  A    between atoms: _183  and  _184
REMARK   62  A    between atoms: _183  and  _186
REMARK   63  A    between atoms: _186  and  _187
REMARK   64  A    between atoms: _188  and  ZN_438
REMARK   65  A    between atoms: _192  and  _194
REMARK   66  A    between atoms: _194  and  _195
REMARK   67  A    between atoms: _194  and  _197
REMARK   68  A    between atoms: _197  and  _198
REMARK   69  A    between atoms: _201  and  _203
REMARK   70  A    between atoms: _203  and  _204
REMARK   71  A    between atoms: _203  and  _206
REMARK   72  A    between atoms: _209  and  _211
REMARK   73  A    between atoms: _211  and  _212
REMARK   74  A    between atoms: _211  and  _214
REMARK   75  A    between atoms: _214  and  _215
REMARK   76  A    between atoms: _220  and  _222
REMARK   77  A    between atoms: _222  and  _223
REMARK   78  A    between atoms: _222  and  _225
REMARK   79  A    between atoms: _225  and  _226
REMARK   80  A    between atoms: _232  and  _234
REMARK   81  A    between atoms: _234  and  _235
REMARK   82  A    between atoms: _237  and  _239
REMARK   83  A    between atoms: _239  and  _240
REMARK   84  A    between atoms: _239  and  _242
REMARK   85  A    between atoms: _242  and  _243
REMARK   86  A    between atoms: _243  and  _244
REMARK   87  A    between atoms: _244  and  _245
REMARK   88  A    between atoms: _245  and  _246
REMARK   89  A    between atoms: _250  and  _252
REMARK   90  A    between atoms: _252  and  _253
REMARK   91  A    between atoms: _252  and  _255
REMARK   92  A    between atoms: _258  and  _260
REMARK   93  A    between atoms: _260  and  _261
REMARK   94  A    between atoms: _260  and  _263
REMARK   95  A    between atoms: _263  and  _264
REMARK   96  A    between atoms: _264  and  _265
REMARK   97  A    between atoms: _270  and  _272
REMARK   98  A    between atoms: _272  and  _273
REMARK   99  A    between atoms: _272  and  _275
REMARK  100  A    between atoms: _275  and  _276
REMARK  101  A    between atoms: _279  and  _281
REMARK  102  A    between atoms: _281  and  _282
REMARK  103  A    between atoms: _285  and  _287
REMARK  104  A    between atoms: _287  and  _288
REMARK  105  A    between atoms: _287  and  _290
REMARK  106  A    between atoms: _293  and  _295
REMARK  107  A    between atoms: _295  and  _296
REMARK  108  A    between atoms: _295  and  _298
REMARK  109  A    between atoms: _298  and  _299
REMARK  110  A    between atoms: _302  and  _304
REMARK  111  A    between atoms: _304  and  _305
REMARK  112  A    between atoms: _307  and  _309
REMARK  113  A    between atoms: _309  and  _310
REMARK  114  A    between atoms: _312  and  _314
REMARK  115  A    between atoms: _314  and  _315
REMARK  116  A    between atoms: _314  and  _317
REMARK  117  A    between atoms: _317  and  _318
REMARK  118  A    between atoms: _320  and  _322
REMARK  119  A    between atoms: _322  and  _323
REMARK  120  A    between atoms: _322  and  _325
REMARK  121  A    between atoms: _325  and  _326
REMARK  122  A    between atoms: _329  and  _331
REMARK  123  A    between atoms: _331  and  _332
REMARK  124  A    between atoms: _331  and  _334
REMARK  125  A    between atoms: _334  and  _335
REMARK  126  A    between atoms: _338  and  _340
REMARK  127  A    between atoms: _340  and  _341
REMARK  128  A    between atoms: _340  and  _343
REMARK  129  A    between atoms: _343  and  _344
REMARK  130  A    between atoms: _348  and  _349
REMARK  131  A    between atoms: _355  and  _356
REMARK  132  A    between atoms: _361  and  _363
REMARK  133  A    between atoms: _363  and  _364
REMARK  134  A    between atoms: _363  and  _366
REMARK  135  A    between atoms: _366  and  _367
REMARK  136  A    between atoms: _370  and  _372
REMARK  137  A    between atoms: _372  and  _373
REMARK  138  A    between atoms: _372  and  _375
REMARK  139  A    between atoms: _375  and  _376
REMARK  140  A    between atoms: _379  and  _381
REMARK  141  A    between atoms: _381  and  _382
REMARK  142  A    between atoms: _381  and  _384
REMARK  143  A    between atoms: _386  and  _388
REMARK  144  A    between atoms: _388  and  _389
REMARK  145  A    between atoms: _388  and  _391
REMARK  146  A    between atoms: _394  and  _396
REMARK  147  A    between atoms: _396  and  _397
REMARK  148  A    between atoms: _396  and  _399
REMARK  149  A    between atoms: _399  and  _400
REMARK  150  A    between atoms: _410  and  _412
REMARK  151  A    between atoms: _412  and  _413
REMARK  152  A    between atoms: _412  and  _415
REMARK  153  A    between atoms: _415  and  _416
REMARK  154  A    between atoms: _421  and  _423
REMARK  155  A    between atoms: _423  and  _424
REMARK  156  A    between atoms: _423  and  _426
REMARK  157  A    between atoms: _426  and  _427
REMARK  158  A    between atoms: _427  and  _428
REMARK  159  A    between atoms: _428  and  _429
REMARK                            x       y       z     vdW  Elec       q    Type
REMARK                         _______ _______ _______ _____ _____    ______ ____
ROOT
ATOM      1  O   HOH     1      20.658  15.611  16.057  0.00  0.00    +0.000 OA
ENDROOT
TORSDOF 0
REMARK  Name = ../refined-set-2016/4z1j/4z1j_pocket.pdb
REMARK  159 active torsions:
REMARK  status: ('A' for Active; 'I' for Inactive)
REMARK    1  A    between atoms: _1  and  _3
REMARK    2  A    between atoms: _3  and  _4
REMARK    3  A    between atoms: _3  and  _6
REMARK    4  A    between atoms: _6  and  _7
REMARK    5  A    between atoms: _17  and  _19
REMARK    6  A    between atoms: _19  and  _20
REMARK    7  A    between atoms: _19  and  _22
REMARK    8  A    between atoms: _22  and  _23
REMARK    9  A    between atoms: _28  and  _29
REMARK   10  A    between atoms: _31  and  _33
REMARK   11  A    between atoms: _33  and  _34
REMARK   12  A    between atoms: _33  and  _36
REMARK   13  A    between atoms: _36  and  _37
REMARK   14  A    between atoms: _40  and  _41
REMARK   15  A    between atoms: _46  and  _48
REMARK   16  A    between atoms: _48  and  _49
REMARK   17  A    between atoms: _48  and  _51
REMARK   18  A    between atoms: _51  and  _52
REMARK   19  A    between atoms: _57  and  _59
REMARK   20  A    between atoms: _59  and  _60
REMARK   21  A    between atoms: _63  and  _65
REMARK   22  A    between atoms: _65  and  _66
REMARK   23  A    between atoms: _65  and  _68
REMARK   24  A    between atoms: _68  and  _69
REMARK   25  A    between atoms: _74  and  _76
REMARK   26  A    between atoms: _76  and  _77
REMARK   27  A    between atoms: _76  and  _79
REMARK   28  A    between atoms: _79  and  _80
REMARK   29  A    between atoms: _83  and  _85
REMARK   30  A    between atoms: _85  and  _86
REMARK   31  A    between atoms: _85  and  _88
REMARK   32  A    between atoms: _88  and  _89
REMARK   33  A    between atoms: _89  and  _90
REMARK   34  A    between atoms: _95  and  _97
REMARK   35  A    between atoms: _97  and  _98
REMARK   36  A    between atoms: _97  and  _100
REMARK   37  A    between atoms: _100  and  _101
REMARK   38  A    between atoms: _107  and  _109
REMARK   39  A    between atoms: _120  and  _123
REMARK   40  A    between atoms: _123  and  _124
REMARK   41  A    between atoms: _132  and  _133
REMARK   42  A    between atoms: _141  and  _143
REMARK   43  A    between atoms: _143  and  _144
REMARK   44  A    between atoms: _143  and  _146
REMARK   45  A    between atoms: _146  and  _147
REMARK   46  A    between atoms: _147  and  _148
REMARK   47  A    between atoms: _151  and  _153
REMARK   48  A    between atoms: _153  and  _154
REMARK   49  A    between atoms: _153  and  _156
REMARK   50  A    between atoms: _156  and  _157
REMARK   51  A    between atoms: _162  and  _164
REMARK   52  A    between atoms: _164  and  _165
REMARK   53  A    between atoms: _164  and  _167
REMARK   54  A    between atoms: _167  and  _168
REMARK   55  A    between atoms: _168  and  _169
REMARK   56  A    between atoms: _172  and  _174
REMARK   57  A    between atoms: _174  and  _175
REMARK   58  A    between atoms: _174  and  _177
REMARK   59  A    between atoms: _177  and  _178
REMARK   60  A    between atoms: _181  and  _183
REMARK   61  A    between atoms: _183  and  _184
REMARK   62  A    between atoms: _183  and  _186
REMARK   63  A    between atoms: _186  and  _187
REMARK   64  A    between atoms: _188  and  ZN_438
REMARK   65  A    between atoms: _192  and  _194
REMARK   66  A    between atoms: _194  and  _195
REMARK   67  A    between atoms: _194  and  _197
REMARK   68  A    between atoms: _197  and  _198
REMARK   69  A    between atoms: _201  and  _203
REMARK   70  A    between atoms: _203  and  _204
REMARK   71  A    between atoms: _203  and  _206
REMARK   72  A    between atoms: _209  and  _211
REMARK   73  A    between atoms: _211  and  _212
REMARK   74  A    between atoms: _211  and  _214
REMARK   75  A    between atoms: _214  and  _215
REMARK   76  A    between atoms: _220  and  _222
REMARK   77  A    between atoms: _222  and  _223
REMARK   78  A    between atoms: _222  and  _225
REMARK   79  A    between atoms: _225  and  _226
REMARK   80  A    between atoms: _232  and  _234
REMARK   81  A    between atoms: _234  and  _235
REMARK   82  A    between atoms: _237  and  _239
REMARK   83  A    between atoms: _239  and  _240
REMARK   84  A    between atoms: _239  and  _242
REMARK   85  A    between atoms: _242  and  _243
REMARK   86  A    between atoms: _243  and  _244
REMARK   87  A    between atoms: _244  and  _245
REMARK   88  A    between atoms: _245  and  _246
REMARK   89  A    between atoms: _250  and  _252
REMARK   90  A    between atoms: _252  and  _253
REMARK   91  A    between atoms: _252  and  _255
REMARK   92  A    between atoms: _258  and  _260
REMARK   93  A    between atoms: _260  and  _261
REMARK   94  A    between atoms: _260  and  _263
REMARK   95  A    between atoms: _263  and  _264
REMARK   96  A    between atoms: _264  and  _265
REMARK   97  A    between atoms: _270  and  _272
REMARK   98  A    between atoms: _272  and  _273
REMARK   99  A    between atoms: _272  and  _275
REMARK  100  A    between atoms: _275  and  _276
REMARK  101  A    between atoms: _279  and  _281
REMARK  102  A    between atoms: _281  and  _282
REMARK  103  A    between atoms: _285  and  _287
REMARK  104  A    between atoms: _287  and  _288
REMARK  105  A    between atoms: _287  and  _290
REMARK  106  A    between atoms: _293  and  _295
REMARK  107  A    between atoms: _295  and  _296
REMARK  108  A    between atoms: _295  and  _298
REMARK  109  A    between atoms: _298  and  _299
REMARK  110  A    between atoms: _302  and  _304
REMARK  111  A    between atoms: _304  and  _305
REMARK  112  A    between atoms: _307  and  _309
REMARK  113  A    between atoms: _309  and  _310
REMARK  114  A    between atoms: _312  and  _314
REMARK  115  A    between atoms: _314  and  _315
REMARK  116  A    between atoms: _314  and  _317
REMARK  117  A    between atoms: _317  and  _318
REMARK  118  A    between atoms: _320  and  _322
REMARK  119  A    between atoms: _322  and  _323
REMARK  120  A    between atoms: _322  and  _325
REMARK  121  A    between atoms: _325  and  _326
REMARK  122  A    between atoms: _329  and  _331
REMARK  123  A    between atoms: _331  and  _332
REMARK  124  A    between atoms: _331  and  _334
REMARK  125  A    between atoms: _334  and  _335
REMARK  126  A    between atoms: _338  and  _340
REMARK  127  A    between atoms: _340  and  _341
REMARK  128  A    between atoms: _340  and  _343
REMARK  129  A    between atoms: _343  and  _344
REMARK  130  A    between atoms: _348  and  _349
REMARK  131  A    between atoms: _355  and  _356
REMARK  132  A    between atoms: _361  and  _363
REMARK  133  A    between atoms: _363  and  _364
REMARK  134  A    between atoms: _363  and  _366
REMARK  135  A    between atoms: _366  and  _367
REMARK  136  A    between atoms: _370  and  _372
REMARK  137  A    between atoms: _372  and  _373
REMARK  138  A    between atoms: _372  and  _375
REMARK  139  A    between atoms: _375  and  _376
REMARK  140  A    between atoms: _379  and  _381
REMARK  141  A    between atoms: _381  and  _382
REMARK  142  A    between atoms: _381  and  _384
REMARK  143  A    between atoms: _386  and  _388
REMARK  144  A    between atoms: _388  and  _389
REMARK  145  A    between atoms: _388  and  _391
REMARK  146  A    between atoms: _394  and  _396
REMARK  147  A    between atoms: _396  and  _397
REMARK  148  A    between atoms: _396  and  _399
REMARK  149  A    between atoms: _399  and  _400
REMARK  150  A    between atoms: _410  and  _412
REMARK  151  A    between atoms: _412  and  _413
REMARK  152  A    between atoms: _412  and  _415
REMARK  153  A    between atoms: _415  and  _416
REMARK  154  A    between atoms: _421  and  _423
REMARK  155  A    between atoms: _423  and  _424
REMARK  156  A    between atoms: _423  and  _426
REMARK  157  A    between atoms: _426  and  _427
REMARK  158  A    between atoms: _427  and  _428
REMARK  159  A    between atoms: _428  and  _429
REMARK                            x       y       z     vdW  Elec       q    Type
REMARK                         _______ _______ _______ _____ _____    ______ ____
ROOT
ATOM      1  O   HOH     1      10.388  10.311   7.738  0.00  0.00    +0.000 OA
ENDROOT
TORSDOF 0
REMARK  Name = ../refined-set-2016/4z1j/4z1j_pocket.pdb
REMARK  159 active torsions:
REMARK  status: ('A' for Active; 'I' for Inactive)
REMARK    1  A    between atoms: _1  and  _3
REMARK    2  A    between atoms: _3  and  _4
REMARK    3  A    between atoms: _3  and  _6
REMARK    4  A    between atoms: _6  and  _7
REMARK    5  A    between atoms: _17  and  _19
REMARK    6  A    between atoms: _19  and  _20
REMARK    7  A    between atoms: _19  and  _22
REMARK    8  A    between atoms: _22  and  _23
REMARK    9  A    between atoms: _28  and  _29
REMARK   10  A    between atoms: _31  and  _33
REMARK   11  A    between atoms: _33  and  _34
REMARK   12  A    between atoms: _33  and  _36
REMARK   13  A    between atoms: _36  and  _37
REMARK   14  A    between atoms: _40  and  _41
REMARK   15  A    between atoms: _46  and  _48
REMARK   16  A    between atoms: _48  and  _49
REMARK   17  A    between atoms: _48  and  _51
REMARK   18  A    between atoms: _51  and  _52
REMARK   19  A    between atoms: _57  and  _59
REMARK   20  A    between atoms: _59  and  _60
REMARK   21  A    between atoms: _63  and  _65
REMARK   22  A    between atoms: _65  and  _66
REMARK   23  A    between atoms: _65  and  _68
REMARK   24  A    between atoms: _68  and  _69
REMARK   25  A    between atoms: _74  and  _76
REMARK   26  A    between atoms: _76  and  _77
REMARK   27  A    between atoms: _76  and  _79
REMARK   28  A    between atoms: _79  and  _80
REMARK   29  A    between atoms: _83  and  _85
REMARK   30  A    between atoms: _85  and  _86
REMARK   31  A    between atoms: _85  and  _88
REMARK   32  A    between atoms: _88  and  _89
REMARK   33  A    between atoms: _89  and  _90
REMARK   34  A    between atoms: _95  and  _97
REMARK   35  A    between atoms: _97  and  _98
REMARK   36  A    between atoms: _97  and  _100
REMARK   37  A    between atoms: _100  and  _101
REMARK   38  A    between atoms: _107  and  _109
REMARK   39  A    between atoms: _120  and  _123
REMARK   40  A    between atoms: _123  and  _124
REMARK   41  A    between atoms: _132  and  _133
REMARK   42  A    between atoms: _141  and  _143
REMARK   43  A    between atoms: _143  and  _144
REMARK   44  A    between atoms: _143  and  _146
REMARK   45  A    between atoms: _146  and  _147
REMARK   46  A    between atoms: _147  and  _148
REMARK   47  A    between atoms: _151  and  _153
REMARK   48  A    between atoms: _153  and  _154
REMARK   49  A    between atoms: _153  and  _156
REMARK   50  A    between atoms: _156  and  _157
REMARK   51  A    between atoms: _162  and  _164
REMARK   52  A    between atoms: _164  and  _165
REMARK   53  A    between atoms: _164  and  _167
REMARK   54  A    between atoms: _167  and  _168
REMARK   55  A    between atoms: _168  and  _169
REMARK   56  A    between atoms: _172  and  _174
REMARK   57  A    between atoms: _174  and  _175
REMARK   58  A    between atoms: _174  and  _177
REMARK   59  A    between atoms: _177  and  _178
REMARK   60  A    between atoms: _181  and  _183
REMARK   61  A    between atoms: _183  and  _184
REMARK   62  A    between atoms: _183  and  _186
REMARK   63  A    between atoms: _186  and  _187
REMARK   64  A    between atoms: _188  and  ZN_438
REMARK   65  A    between atoms: _192  and  _194
REMARK   66  A    between atoms: _194  and  _195
REMARK   67  A    between atoms: _194  and  _197
REMARK   68  A    between atoms: _197  and  _198
REMARK   69  A    between atoms: _201  and  _203
REMARK   70  A    between atoms: _203  and  _204
REMARK   71  A    between atoms: _203  and  _206
REMARK   72  A    between atoms: _209  and  _211
REMARK   73  A    between atoms: _211  and  _212
REMARK   74  A    between atoms: _211  and  _214
REMARK   75  A    between atoms: _214  and  _215
REMARK   76  A    between atoms: _220  and  _222
REMARK   77  A    between atoms: _222  and  _223
REMARK   78  A    between atoms: _222  and  _225
REMARK   79  A    between atoms: _225  and  _226
REMARK   80  A    between atoms: _232  and  _234
REMARK   81  A    between atoms: _234  and  _235
REMARK   82  A    between atoms: _237  and  _239
REMARK   83  A    between atoms: _239  and  _240
REMARK   84  A    between atoms: _239  and  _242
REMARK   85  A    between atoms: _242  and  _243
REMARK   86  A    between atoms: _243  and  _244
REMARK   87  A    between atoms: _244  and  _245
REMARK   88  A    between atoms: _245  and  _246
REMARK   89  A    between atoms: _250  and  _252
REMARK   90  A    between atoms: _252  and  _253
REMARK   91  A    between atoms: _252  and  _255
REMARK   92  A    between atoms: _258  and  _260
REMARK   93  A    between atoms: _260  and  _261
REMARK   94  A    between atoms: _260  and  _263
REMARK   95  A    between atoms: _263  and  _264
REMARK   96  A    between atoms: _264  and  _265
REMARK   97  A    between atoms: _270  and  _272
REMARK   98  A    between atoms: _272  and  _273
REMARK   99  A    between atoms: _272  and  _275
REMARK  100  A    between atoms: _275  and  _276
REMARK  101  A    between atoms: _279  and  _281
REMARK  102  A    between atoms: _281  and  _282
REMARK  103  A    between atoms: _285  and  _287
REMARK  104  A    between atoms: _287  and  _288
REMARK  105  A    between atoms: _287  and  _290
REMARK  106  A    between atoms: _293  and  _295
REMARK  107  A    between atoms: _295  and  _296
REMARK  108  A    between atoms: _295  and  _298
REMARK  109  A    between atoms: _298  and  _299
REMARK  110  A    between atoms: _302  and  _304
REMARK  111  A    between atoms: _304  and  _305
REMARK  112  A    between atoms: _307  and  _309
REMARK  113  A    between atoms: _309  and  _310
REMARK  114  A    between atoms: _312  and  _314
REMARK  115  A    between atoms: _314  and  _315
REMARK  116  A    between atoms: _314  and  _317
REMARK  117  A    between atoms: _317  and  _318
REMARK  118  A    between atoms: _320  and  _322
REMARK  119  A    between atoms: _322  and  _323
REMARK  120  A    between atoms: _322  and  _325
REMARK  121  A    between atoms: _325  and  _326
REMARK  122  A    between atoms: _329  and  _331
REMARK  123  A    between atoms: _331  and  _332
REMARK  124  A    between atoms: _331  and  _334
REMARK  125  A    between atoms: _334  and  _335
REMARK  126  A    between atoms: _338  and  _340
REMARK  127  A    between atoms: _340  and  _341
REMARK  128  A    between atoms: _340  and  _343
REMARK  129  A    between atoms: _343  and  _344
REMARK  130  A    between atoms: _348  and  _349
REMARK  131  A    between atoms: _355  and  _356
REMARK  132  A    between atoms: _361  and  _363
REMARK  133  A    between atoms: _363  and  _364
REMARK  134  A    between atoms: _363  and  _366
REMARK  135  A    between atoms: _366  and  _367
REMARK  136  A    between atoms: _370  and  _372
REMARK  137  A    between atoms: _372  and  _373
REMARK  138  A    between atoms: _372  and  _375
REMARK  139  A    between atoms: _375  and  _376
REMARK  140  A    between atoms: _379  and  _381
REMARK  141  A    between atoms: _381  and  _382
REMARK  142  A    between atoms: _381  and  _384
REMARK  143  A    between atoms: _386  and  _388
REMARK  144  A    between atoms: _388  and  _389
REMARK  145  A    between atoms: _388  and  _391
REMARK  146  A    between atoms: _394  and  _396
REMARK  147  A    between atoms: _396  and  _397
REMARK  148  A    between atoms: _396  and  _399
REMARK  149  A    between atoms: _399  and  _400
REMARK  150  A    between atoms: _410  and  _412
REMARK  151  A    between atoms: _412  and  _413
REMARK  152  A    between atoms: _412  and  _415
REMARK  153  A    between atoms: _415  and  _416
REMARK  154  A    between atoms: _421  and  _423
REMARK  155  A    between atoms: _423  and  _424
REMARK  156  A    between atoms: _423  and  _426
REMARK  157  A    between atoms: _426  and  _427
REMARK  158  A    between atoms: _427  and  _428
REMARK  159  A    between atoms: _428  and  _429
REMARK                            x       y       z     vdW  Elec       q    Type
REMARK                         _______ _______ _______ _____ _____    ______ ____
ROOT
ATOM      1  O   HOH     1      16.660  -3.109  11.293  0.00  0.00    +0.000 OA
ENDROOT
TORSDOF 0
REMARK  Name = ../refined-set-2016/4z1j/4z1j_pocket.pdb
REMARK  159 active torsions:
REMARK  status: ('A' for Active; 'I' for Inactive)
REMARK    1  A    between atoms: _1  and  _3
REMARK    2  A    between atoms: _3  and  _4
REMARK    3  A    between atoms: _3  and  _6
REMARK    4  A    between atoms: _6  and  _7
REMARK    5  A    between atoms: _17  and  _19
REMARK    6  A    between atoms: _19  and  _20
REMARK    7  A    between atoms: _19  and  _22
REMARK    8  A    between atoms: _22  and  _23
REMARK    9  A    between atoms: _28  and  _29
REMARK   10  A    between atoms: _31  and  _33
REMARK   11  A    between atoms: _33  and  _34
REMARK   12  A    between atoms: _33  and  _36
REMARK   13  A    between atoms: _36  and  _37
REMARK   14  A    between atoms: _40  and  _41
REMARK   15  A    between atoms: _46  and  _48
REMARK   16  A    between atoms: _48  and  _49
REMARK   17  A    between atoms: _48  and  _51
REMARK   18  A    between atoms: _51  and  _52
REMARK   19  A    between atoms: _57  and  _59
REMARK   20  A    between atoms: _59  and  _60
REMARK   21  A    between atoms: _63  and  _65
REMARK   22  A    between atoms: _65  and  _66
REMARK   23  A    between atoms: _65  and  _68
REMARK   24  A    between atoms: _68  and  _69
REMARK   25  A    between atoms: _74  and  _76
REMARK   26  A    between atoms: _76  and  _77
REMARK   27  A    between atoms: _76  and  _79
REMARK   28  A    between atoms: _79  and  _80
REMARK   29  A    between atoms: _83  and  _85
REMARK   30  A    between atoms: _85  and  _86
REMARK   31  A    between atoms: _85  and  _88
REMARK   32  A    between atoms: _88  and  _89
REMARK   33  A    between atoms: _89  and  _90
REMARK   34  A    between atoms: _95  and  _97
REMARK   35  A    between atoms: _97  and  _98
REMARK   36  A    between atoms: _97  and  _100
REMARK   37  A    between atoms: _100  and  _101
REMARK   38  A    between atoms: _107  and  _109
REMARK   39  A    between atoms: _120  and  _123
REMARK   40  A    between atoms: _123  and  _124
REMARK   41  A    between atoms: _132  and  _133
REMARK   42  A    between atoms: _141  and  _143
REMARK   43  A    between atoms: _143  and  _144
REMARK   44  A    between atoms: _143  and  _146
REMARK   45  A    between atoms: _146  and  _147
REMARK   46  A    between atoms: _147  and  _148
REMARK   47  A    between atoms: _151  and  _153
REMARK   48  A    between atoms: _153  and  _154
REMARK   49  A    between atoms: _153  and  _156
REMARK   50  A    between atoms: _156  and  _157
REMARK   51  A    between atoms: _162  and  _164
REMARK   52  A    between atoms: _164  and  _165
REMARK   53  A    between atoms: _164  and  _167
REMARK   54  A    between atoms: _167  and  _168
REMARK   55  A    between atoms: _168  and  _169
REMARK   56  A    between atoms: _172  and  _174
REMARK   57  A    between atoms: _174  and  _175
REMARK   58  A    between atoms: _174  and  _177
REMARK   59  A    between atoms: _177  and  _178
REMARK   60  A    between atoms: _181  and  _183
REMARK   61  A    between atoms: _183  and  _184
REMARK   62  A    between atoms: _183  and  _186
REMARK   63  A    between atoms: _186  and  _187
REMARK   64  A    between atoms: _188  and  ZN_438
REMARK   65  A    between atoms: _192  and  _194
REMARK   66  A    between atoms: _194  and  _195
REMARK   67  A    between atoms: _194  and  _197
REMARK   68  A    between atoms: _197  and  _198
REMARK   69  A    between atoms: _201  and  _203
REMARK   70  A    between atoms: _203  and  _204
REMARK   71  A    between atoms: _203  and  _206
REMARK   72  A    between atoms: _209  and  _211
REMARK   73  A    between atoms: _211  and  _212
REMARK   74  A    between atoms: _211  and  _214
REMARK   75  A    between atoms: _214  and  _215
REMARK   76  A    between atoms: _220  and  _222
REMARK   77  A    between atoms: _222  and  _223
REMARK   78  A    between atoms: _222  and  _225
REMARK   79  A    between atoms: _225  and  _226
REMARK   80  A    between atoms: _232  and  _234
REMARK   81  A    between atoms: _234  and  _235
REMARK   82  A    between atoms: _237  and  _239
REMARK   83  A    between atoms: _239  and  _240
REMARK   84  A    between atoms: _239  and  _242
REMARK   85  A    between atoms: _242  and  _243
REMARK   86  A    between atoms: _243  and  _244
REMARK   87  A    between atoms: _244  and  _245
REMARK   88  A    between atoms: _245  and  _246
REMARK   89  A    between atoms: _250  and  _252
REMARK   90  A    between atoms: _252  and  _253
REMARK   91  A    between atoms: _252  and  _255
REMARK   92  A    between atoms: _258  and  _260
REMARK   93  A    between atoms: _260  and  _261
REMARK   94  A    between atoms: _260  and  _263
REMARK   95  A    between atoms: _263  and  _264
REMARK   96  A    between atoms: _264  and  _265
REMARK   97  A    between atoms: _270  and  _272
REMARK   98  A    between atoms: _272  and  _273
REMARK   99  A    between atoms: _272  and  _275
REMARK  100  A    between atoms: _275  and  _276
REMARK  101  A    between atoms: _279  and  _281
REMARK  102  A    between atoms: _281  and  _282
REMARK  103  A    between atoms: _285  and  _287
REMARK  104  A    between atoms: _287  and  _288
REMARK  105  A    between atoms: _287  and  _290
REMARK  106  A    between atoms: _293  and  _295
REMARK  107  A    between atoms: _295  and  _296
REMARK  108  A    between atoms: _295  and  _298
REMARK  109  A    between atoms: _298  and  _299
REMARK  110  A    between atoms: _302  and  _304
REMARK  111  A    between atoms: _304  and  _305
REMARK  112  A    between atoms: _307  and  _309
REMARK  113  A    between atoms: _309  and  _310
REMARK  114  A    between atoms: _312  and  _314
REMARK  115  A    between atoms: _314  and  _315
REMARK  116  A    between atoms: _314  and  _317
REMARK  117  A    between atoms: _317  and  _318
REMARK  118  A    between atoms: _320  and  _322
REMARK  119  A    between atoms: _322  and  _323
REMARK  120  A    between atoms: _322  and  _325
REMARK  121  A    between atoms: _325  and  _326
REMARK  122  A    between atoms: _329  and  _331
REMARK  123  A    between atoms: _331  and  _332
REMARK  124  A    between atoms: _331  and  _334
REMARK  125  A    between atoms: _334  and  _335
REMARK  126  A    between atoms: _338  and  _340
REMARK  127  A    between atoms: _340  and  _341
REMARK  128  A    between atoms: _340  and  _343
REMARK  129  A    between atoms: _343  and  _344
REMARK  130  A    between atoms: _348  and  _349
REMARK  131  A    between atoms: _355  and  _356
REMARK  132  A    between atoms: _361  and  _363
REMARK  133  A    between atoms: _363  and  _364
REMARK  134  A    between atoms: _363  and  _366
REMARK  135  A    between atoms: _366  and  _367
REMARK  136  A    between atoms: _370  and  _372
REMARK  137  A    between atoms: _372  and  _373
REMARK  138  A    between atoms: _372  and  _375
REMARK  139  A    between atoms: _375  and  _376
REMARK  140  A    between atoms: _379  and  _381
REMARK  141  A    between atoms: _381  and  _382
REMARK  142  A    between atoms: _381  and  _384
REMARK  143  A    between atoms: _386  and  _388
REMARK  144  A    between atoms: _388  and  _389
REMARK  145  A    between atoms: _388  and  _391
REMARK  146  A    between atoms: _394  and  _396
REMARK  147  A    between atoms: _396  and  _397
REMARK  148  A    between atoms: _396  and  _399
REMARK  149  A    between atoms: _399  and  _400
REMARK  150  A    between atoms: _410  and  _412
REMARK  151  A    between atoms: _412  and  _413
REMARK  152  A    between atoms: _412  and  _415
REMARK  153  A    between atoms: _415  and  _416
REMARK  154  A    between atoms: _421  and  _423
REMARK  155  A    between atoms: _423  and  _424
REMARK  156  A    between atoms: _423  and  _426
REMARK  157  A    between atoms: _426  and  _427
REMARK  158  A    between atoms: _427  and  _428
REMARK  159  A    between atoms: _428  and  _429
REMARK                            x       y       z     vdW  Elec       q    Type
REMARK                         _______ _______ _______ _____ _____    ______ ____
ROOT
ATOM      1  O   HOH     1      18.461  -1.273  11.554  0.00  0.00    +0.000 OA
ENDROOT
TORSDOF 0
REMARK  Name = ../refined-set-2016/4z1j/4z1j_pocket.pdb
REMARK  159 active torsions:
REMARK  status: ('A' for Active; 'I' for Inactive)
REMARK    1  A    between atoms: _1  and  _3
REMARK    2  A    between atoms: _3  and  _4
REMARK    3  A    between atoms: _3  and  _6
REMARK    4  A    between atoms: _6  and  _7
REMARK    5  A    between atoms: _17  and  _19
REMARK    6  A    between atoms: _19  and  _20
REMARK    7  A    between atoms: _19  and  _22
REMARK    8  A    between atoms: _22  and  _23
REMARK    9  A    between atoms: _28  and  _29
REMARK   10  A    between atoms: _31  and  _33
REMARK   11  A    between atoms: _33  and  _34
REMARK   12  A    between atoms: _33  and  _36
REMARK   13  A    between atoms: _36  and  _37
REMARK   14  A    between atoms: _40  and  _41
REMARK   15  A    between atoms: _46  and  _48
REMARK   16  A    between atoms: _48  and  _49
REMARK   17  A    between atoms: _48  and  _51
REMARK   18  A    between atoms: _51  and  _52
REMARK   19  A    between atoms: _57  and  _59
REMARK   20  A    between atoms: _59  and  _60
REMARK   21  A    between atoms: _63  and  _65
REMARK   22  A    between atoms: _65  and  _66
REMARK   23  A    between atoms: _65  and  _68
REMARK   24  A    between atoms: _68  and  _69
REMARK   25  A    between atoms: _74  and  _76
REMARK   26  A    between atoms: _76  and  _77
REMARK   27  A    between atoms: _76  and  _79
REMARK   28  A    between atoms: _79  and  _80
REMARK   29  A    between atoms: _83  and  _85
REMARK   30  A    between atoms: _85  and  _86
REMARK   31  A    between atoms: _85  and  _88
REMARK   32  A    between atoms: _88  and  _89
REMARK   33  A    between atoms: _89  and  _90
REMARK   34  A    between atoms: _95  and  _97
REMARK   35  A    between atoms: _97  and  _98
REMARK   36  A    between atoms: _97  and  _100
REMARK   37  A    between atoms: _100  and  _101
REMARK   38  A    between atoms: _107  and  _109
REMARK   39  A    between atoms: _120  and  _123
REMARK   40  A    between atoms: _123  and  _124
REMARK   41  A    between atoms: _132  and  _133
REMARK   42  A    between atoms: _141  and  _143
REMARK   43  A    between atoms: _143  and  _144
REMARK   44  A    between atoms: _143  and  _146
REMARK   45  A    between atoms: _146  and  _147
REMARK   46  A    between atoms: _147  and  _148
REMARK   47  A    between atoms: _151  and  _153
REMARK   48  A    between atoms: _153  and  _154
REMARK   49  A    between atoms: _153  and  _156
REMARK   50  A    between atoms: _156  and  _157
REMARK   51  A    between atoms: _162  and  _164
REMARK   52  A    between atoms: _164  and  _165
REMARK   53  A    between atoms: _164  and  _167
REMARK   54  A    between atoms: _167  and  _168
REMARK   55  A    between atoms: _168  and  _169
REMARK   56  A    between atoms: _172  and  _174
REMARK   57  A    between atoms: _174  and  _175
REMARK   58  A    between atoms: _174  and  _177
REMARK   59  A    between atoms: _177  and  _178
REMARK   60  A    between atoms: _181  and  _183
REMARK   61  A    between atoms: _183  and  _184
REMARK   62  A    between atoms: _183  and  _186
REMARK   63  A    between atoms: _186  and  _187
REMARK   64  A    between atoms: _188  and  ZN_438
REMARK   65  A    between atoms: _192  and  _194
REMARK   66  A    between atoms: _194  and  _195
REMARK   67  A    between atoms: _194  and  _197
REMARK   68  A    between atoms: _197  and  _198
REMARK   69  A    between atoms: _201  and  _203
REMARK   70  A    between atoms: _203  and  _204
REMARK   71  A    between atoms: _203  and  _206
REMARK   72  A    between atoms: _209  and  _211
REMARK   73  A    between atoms: _211  and  _212
REMARK   74  A    between atoms: _211  and  _214
REMARK   75  A    between atoms: _214  and  _215
REMARK   76  A    between atoms: _220  and  _222
REMARK   77  A    between atoms: _222  and  _223
REMARK   78  A    between atoms: _222  and  _225
REMARK   79  A    between atoms: _225  and  _226
REMARK   80  A    between atoms: _232  and  _234
REMARK   81  A    between atoms: _234  and  _235
REMARK   82  A    between atoms: _237  and  _239
REMARK   83  A    between atoms: _239  and  _240
REMARK   84  A    between atoms: _239  and  _242
REMARK   85  A    between atoms: _242  and  _243
REMARK   86  A    between atoms: _243  and  _244
REMARK   87  A    between atoms: _244  and  _245
REMARK   88  A    between atoms: _245  and  _246
REMARK   89  A    between atoms: _250  and  _252
REMARK   90  A    between atoms: _252  and  _253
REMARK   91  A    between atoms: _252  and  _255
REMARK   92  A    between atoms: _258  and  _260
REMARK   93  A    between atoms: _260  and  _261
REMARK   94  A    between atoms: _260  and  _263
REMARK   95  A    between atoms: _263  and  _264
REMARK   96  A    between atoms: _264  and  _265
REMARK   97  A    between atoms: _270  and  _272
REMARK   98  A    between atoms: _272  and  _273
REMARK   99  A    between atoms: _272  and  _275
REMARK  100  A    between atoms: _275  and  _276
REMARK  101  A    between atoms: _279  and  _281
REMARK  102  A    between atoms: _281  and  _282
REMARK  103  A    between atoms: _285  and  _287
REMARK  104  A    between atoms: _287  and  _288
REMARK  105  A    between atoms: _287  and  _290
REMARK  106  A    between atoms: _293  and  _295
REMARK  107  A    between atoms: _295  and  _296
REMARK  108  A    between atoms: _295  and  _298
REMARK  109  A    between atoms: _298  and  _299
REMARK  110  A    between atoms: _302  and  _304
REMARK  111  A    between atoms: _304  and  _305
REMARK  112  A    between atoms: _307  and  _309
REMARK  113  A    between atoms: _309  and  _310
REMARK  114  A    between atoms: _312  and  _314
REMARK  115  A    between atoms: _314  and  _315
REMARK  116  A    between atoms: _314  and  _317
REMARK  117  A    between atoms: _317  and  _318
REMARK  118  A    between atoms: _320  and  _322
REMARK  119  A    between atoms: _322  and  _323
REMARK  120  A    between atoms: _322  and  _325
REMARK  121  A    between atoms: _325  and  _326
REMARK  122  A    between atoms: _329  and  _331
REMARK  123  A    between atoms: _331  and  _332
REMARK  124  A    between atoms: _331  and  _334
REMARK  125  A    between atoms: _334  and  _335
REMARK  126  A    between atoms: _338  and  _340
REMARK  127  A    between atoms: _340  and  _341
REMARK  128  A    between atoms: _340  and  _343
REMARK  129  A    between atoms: _343  and  _344
REMARK  130  A    between atoms: _348  and  _349
REMARK  131  A    between atoms: _355  and  _356
REMARK  132  A    between atoms: _361  and  _363
REMARK  133  A    between atoms: _363  and  _364
REMARK  134  A    between atoms: _363  and  _366
REMARK  135  A    between atoms: _366  and  _367
REMARK  136  A    between atoms: _370  and  _372
REMARK  137  A    between atoms: _372  and  _373
REMARK  138  A    between atoms: _372  and  _375
REMARK  139  A    between atoms: _375  and  _376
REMARK  140  A    between atoms: _379  and  _381
REMARK  141  A    between atoms: _381  and  _382
REMARK  142  A    between atoms: _381  and  _384
REMARK  143  A    between atoms: _386  and  _388
REMARK  144  A    between atoms: _388  and  _389
REMARK  145  A    between atoms: _388  and  _391
REMARK  146  A    between atoms: _394  and  _396
REMARK  147  A    between atoms: _396  and  _397
REMARK  148  A    between atoms: _396  and  _399
REMARK  149  A    between atoms: _399  and  _400
REMARK  150  A    between atoms: _410  and  _412
REMARK  151  A    between atoms: _412  and  _413
REMARK  152  A    between atoms: _412  and  _415
REMARK  153  A    between atoms: _415  and  _416
REMARK  154  A    between atoms: _421  and  _423
REMARK  155  A    between atoms: _423  and  _424
REMARK  156  A    between atoms: _423  and  _426
REMARK  157  A    between atoms: _426  and  _427
REMARK  158  A    between atoms: _427  and  _428
REMARK  159  A    between atoms: _428  and  _429
REMARK                            x       y       z     vdW  Elec       q    Type
REMARK                         _______ _______ _______ _____ _____    ______ ____
ROOT
ATOM      1  O   HOH     1      14.297   9.566  10.683  0.00  0.00    +0.000 OA
ENDROOT
TORSDOF 0
REMARK  Name = ../refined-set-2016/4z1j/4z1j_pocket.pdb
REMARK  159 active torsions:
REMARK  status: ('A' for Active; 'I' for Inactive)
REMARK    1  A    between atoms: _1  and  _3
REMARK    2  A    between atoms: _3  and  _4
REMARK    3  A    between atoms: _3  and  _6
REMARK    4  A    between atoms: _6  and  _7
REMARK    5  A    between atoms: _17  and  _19
REMARK    6  A    between atoms: _19  and  _20
REMARK    7  A    between atoms: _19  and  _22
REMARK    8  A    between atoms: _22  and  _23
REMARK    9  A    between atoms: _28  and  _29
REMARK   10  A    between atoms: _31  and  _33
REMARK   11  A    between atoms: _33  and  _34
REMARK   12  A    between atoms: _33  and  _36
REMARK   13  A    between atoms: _36  and  _37
REMARK   14  A    between atoms: _40  and  _41
REMARK   15  A    between atoms: _46  and  _48
REMARK   16  A    between atoms: _48  and  _49
REMARK   17  A    between atoms: _48  and  _51
REMARK   18  A    between atoms: _51  and  _52
REMARK   19  A    between atoms: _57  and  _59
REMARK   20  A    between atoms: _59  and  _60
REMARK   21  A    between atoms: _63  and  _65
REMARK   22  A    between atoms: _65  and  _66
REMARK   23  A    between atoms: _65  and  _68
REMARK   24  A    between atoms: _68  and  _69
REMARK   25  A    between atoms: _74  and  _76
REMARK   26  A    between atoms: _76  and  _77
REMARK   27  A    between atoms: _76  and  _79
REMARK   28  A    between atoms: _79  and  _80
REMARK   29  A    between atoms: _83  and  _85
REMARK   30  A    between atoms: _85  and  _86
REMARK   31  A    between atoms: _85  and  _88
REMARK   32  A    between atoms: _88  and  _89
REMARK   33  A    between atoms: _89  and  _90
REMARK   34  A    between atoms: _95  and  _97
REMARK   35  A    between atoms: _97  and  _98
REMARK   36  A    between atoms: _97  and  _100
REMARK   37  A    between atoms: _100  and  _101
REMARK   38  A    between atoms: _107  and  _109
REMARK   39  A    between atoms: _120  and  _123
REMARK   40  A    between atoms: _123  and  _124
REMARK   41  A    between atoms: _132  and  _133
REMARK   42  A    between atoms: _141  and  _143
REMARK   43  A    between atoms: _143  and  _144
REMARK   44  A    between atoms: _143  and  _146
REMARK   45  A    between atoms: _146  and  _147
REMARK   46  A    between atoms: _147  and  _148
REMARK   47  A    between atoms: _151  and  _153
REMARK   48  A    between atoms: _153  and  _154
REMARK   49  A    between atoms: _153  and  _156
REMARK   50  A    between atoms: _156  and  _157
REMARK   51  A    between atoms: _162  and  _164
REMARK   52  A    between atoms: _164  and  _165
REMARK   53  A    between atoms: _164  and  _167
REMARK   54  A    between atoms: _167  and  _168
REMARK   55  A    between atoms: _168  and  _169
REMARK   56  A    between atoms: _172  and  _174
REMARK   57  A    between atoms: _174  and  _175
REMARK   58  A    between atoms: _174  and  _177
REMARK   59  A    between atoms: _177  and  _178
REMARK   60  A    between atoms: _181  and  _183
REMARK   61  A    between atoms: _183  and  _184
REMARK   62  A    between atoms: _183  and  _186
REMARK   63  A    between atoms: _186  and  _187
REMARK   64  A    between atoms: _188  and  ZN_438
REMARK   65  A    between atoms: _192  and  _194
REMARK   66  A    between atoms: _194  and  _195
REMARK   67  A    between atoms: _194  and  _197
REMARK   68  A    between atoms: _197  and  _198
REMARK   69  A    between atoms: _201  and  _203
REMARK   70  A    between atoms: _203  and  _204
REMARK   71  A    between atoms: _203  and  _206
REMARK   72  A    between atoms: _209  and  _211
REMARK   73  A    between atoms: _211  and  _212
REMARK   74  A    between atoms: _211  and  _214
REMARK   75  A    between atoms: _214  and  _215
REMARK   76  A    between atoms: _220  and  _222
REMARK   77  A    between atoms: _222  and  _223
REMARK   78  A    between atoms: _222  and  _225
REMARK   79  A    between atoms: _225  and  _226
REMARK   80  A    between atoms: _232  and  _234
REMARK   81  A    between atoms: _234  and  _235
REMARK   82  A    between atoms: _237  and  _239
REMARK   83  A    between atoms: _239  and  _240
REMARK   84  A    between atoms: _239  and  _242
REMARK   85  A    between atoms: _242  and  _243
REMARK   86  A    between atoms: _243  and  _244
REMARK   87  A    between atoms: _244  and  _245
REMARK   88  A    between atoms: _245  and  _246
REMARK   89  A    between atoms: _250  and  _252
REMARK   90  A    between atoms: _252  and  _253
REMARK   91  A    between atoms: _252  and  _255
REMARK   92  A    between atoms: _258  and  _260
REMARK   93  A    between atoms: _260  and  _261
REMARK   94  A    between atoms: _260  and  _263
REMARK   95  A    between atoms: _263  and  _264
REMARK   96  A    between atoms: _264  and  _265
REMARK   97  A    between atoms: _270  and  _272
REMARK   98  A    between atoms: _272  and  _273
REMARK   99  A    between atoms: _272  and  _275
REMARK  100  A    between atoms: _275  and  _276
REMARK  101  A    between atoms: _279  and  _281
REMARK  102  A    between atoms: _281  and  _282
REMARK  103  A    between atoms: _285  and  _287
REMARK  104  A    between atoms: _287  and  _288
REMARK  105  A    between atoms: _287  and  _290
REMARK  106  A    between atoms: _293  and  _295
REMARK  107  A    between atoms: _295  and  _296
REMARK  108  A    between atoms: _295  and  _298
REMARK  109  A    between atoms: _298  and  _299
REMARK  110  A    between atoms: _302  and  _304
REMARK  111  A    between atoms: _304  and  _305
REMARK  112  A    between atoms: _307  and  _309
REMARK  113  A    between atoms: _309  and  _310
REMARK  114  A    between atoms: _312  and  _314
REMARK  115  A    between atoms: _314  and  _315
REMARK  116  A    between atoms: _314  and  _317
REMARK  117  A    between atoms: _317  and  _318
REMARK  118  A    between atoms: _320  and  _322
REMARK  119  A    between atoms: _322  and  _323
REMARK  120  A    between atoms: _322  and  _325
REMARK  121  A    between atoms: _325  and  _326
REMARK  122  A    between atoms: _329  and  _331
REMARK  123  A    between atoms: _331  and  _332
REMARK  124  A    between atoms: _331  and  _334
REMARK  125  A    between atoms: _334  and  _335
REMARK  126  A    between atoms: _338  and  _340
REMARK  127  A    between atoms: _340  and  _341
REMARK  128  A    between atoms: _340  and  _343
REMARK  129  A    between atoms: _343  and  _344
REMARK  130  A    between atoms: _348  and  _349
REMARK  131  A    between atoms: _355  and  _356
REMARK  132  A    between atoms: _361  and  _363
REMARK  133  A    between atoms: _363  and  _364
REMARK  134  A    between atoms: _363  and  _366
REMARK  135  A    between atoms: _366  and  _367
REMARK  136  A    between atoms: _370  and  _372
REMARK  137  A    between atoms: _372  and  _373
REMARK  138  A    between atoms: _372  and  _375
REMARK  139  A    between atoms: _375  and  _376
REMARK  140  A    between atoms: _379  and  _381
REMARK  141  A    between atoms: _381  and  _382
REMARK  142  A    between atoms: _381  and  _384
REMARK  143  A    between atoms: _386  and  _388
REMARK  144  A    between atoms: _388  and  _389
REMARK  145  A    between atoms: _388  and  _391
REMARK  146  A    between atoms: _394  and  _396
REMARK  147  A    between atoms: _396  and  _397
REMARK  148  A    between atoms: _396  and  _399
REMARK  149  A    between atoms: _399  and  _400
REMARK  150  A    between atoms: _410  and  _412
REMARK  151  A    between atoms: _412  and  _413
REMARK  152  A    between atoms: _412  and  _415
REMARK  153  A    between atoms: _415  and  _416
REMARK  154  A    between atoms: _421  and  _423
REMARK  155  A    between atoms: _423  and  _424
REMARK  156  A    between atoms: _423  and  _426
REMARK  157  A    between atoms: _426  and  _427
REMARK  158  A    between atoms: _427  and  _428
REMARK  159  A    between atoms: _428  and  _429
REMARK                            x       y       z     vdW  Elec       q    Type
REMARK                         _______ _______ _______ _____ _____    ______ ____
ROOT
ATOM      1  O   HOH     1      15.374   3.302  10.999  0.00  0.00    +0.000 OA
ENDROOT
TORSDOF 0
REMARK  Name = ../refined-set-2016/4z1j/4z1j_pocket.pdb
REMARK  159 active torsions:
REMARK  status: ('A' for Active; 'I' for Inactive)
REMARK    1  A    between atoms: _1  and  _3
REMARK    2  A    between atoms: _3  and  _4
REMARK    3  A    between atoms: _3  and  _6
REMARK    4  A    between atoms: _6  and  _7
REMARK    5  A    between atoms: _17  and  _19
REMARK    6  A    between atoms: _19  and  _20
REMARK    7  A    between atoms: _19  and  _22
REMARK    8  A    between atoms: _22  and  _23
REMARK    9  A    between atoms: _28  and  _29
REMARK   10  A    between atoms: _31  and  _33
REMARK   11  A    between atoms: _33  and  _34
REMARK   12  A    between atoms: _33  and  _36
REMARK   13  A    between atoms: _36  and  _37
REMARK   14  A    between atoms: _40  and  _41
REMARK   15  A    between atoms: _46  and  _48
REMARK   16  A    between atoms: _48  and  _49
REMARK   17  A    between atoms: _48  and  _51
REMARK   18  A    between atoms: _51  and  _52
REMARK   19  A    between atoms: _57  and  _59
REMARK   20  A    between atoms: _59  and  _60
REMARK   21  A    between atoms: _63  and  _65
REMARK   22  A    between atoms: _65  and  _66
REMARK   23  A    between atoms: _65  and  _68
REMARK   24  A    between atoms: _68  and  _69
REMARK   25  A    between atoms: _74  and  _76
REMARK   26  A    between atoms: _76  and  _77
REMARK   27  A    between atoms: _76  and  _79
REMARK   28  A    between atoms: _79  and  _80
REMARK   29  A    between atoms: _83  and  _85
REMARK   30  A    between atoms: _85  and  _86
REMARK   31  A    between atoms: _85  and  _88
REMARK   32  A    between atoms: _88  and  _89
REMARK   33  A    between atoms: _89  and  _90
REMARK   34  A    between atoms: _95  and  _97
REMARK   35  A    between atoms: _97  and  _98
REMARK   36  A    between atoms: _97  and  _100
REMARK   37  A    between atoms: _100  and  _101
REMARK   38  A    between atoms: _107  and  _109
REMARK   39  A    between atoms: _120  and  _123
REMARK   40  A    between atoms: _123  and  _124
REMARK   41  A    between atoms: _132  and  _133
REMARK   42  A    between atoms: _141  and  _143
REMARK   43  A    between atoms: _143  and  _144
REMARK   44  A    between atoms: _143  and  _146
REMARK   45  A    between atoms: _146  and  _147
REMARK   46  A    between atoms: _147  and  _148
REMARK   47  A    between atoms: _151  and  _153
REMARK   48  A    between atoms: _153  and  _154
REMARK   49  A    between atoms: _153  and  _156
REMARK   50  A    between atoms: _156  and  _157
REMARK   51  A    between atoms: _162  and  _164
REMARK   52  A    between atoms: _164  and  _165
REMARK   53  A    between atoms: _164  and  _167
REMARK   54  A    between atoms: _167  and  _168
REMARK   55  A    between atoms: _168  and  _169
REMARK   56  A    between atoms: _172  and  _174
REMARK   57  A    between atoms: _174  and  _175
REMARK   58  A    between atoms: _174  and  _177
REMARK   59  A    between atoms: _177  and  _178
REMARK   60  A    between atoms: _181  and  _183
REMARK   61  A    between atoms: _183  and  _184
REMARK   62  A    between atoms: _183  and  _186
REMARK   63  A    between atoms: _186  and  _187
REMARK   64  A    between atoms: _188  and  ZN_438
REMARK   65  A    between atoms: _192  and  _194
REMARK   66  A    between atoms: _194  and  _195
REMARK   67  A    between atoms: _194  and  _197
REMARK   68  A    between atoms: _197  and  _198
REMARK   69  A    between atoms: _201  and  _203
REMARK   70  A    between atoms: _203  and  _204
REMARK   71  A    between atoms: _203  and  _206
REMARK   72  A    between atoms: _209  and  _211
REMARK   73  A    between atoms: _211  and  _212
REMARK   74  A    between atoms: _211  and  _214
REMARK   75  A    between atoms: _214  and  _215
REMARK   76  A    between atoms: _220  and  _222
REMARK   77  A    between atoms: _222  and  _223
REMARK   78  A    between atoms: _222  and  _225
REMARK   79  A    between atoms: _225  and  _226
REMARK   80  A    between atoms: _232  and  _234
REMARK   81  A    between atoms: _234  and  _235
REMARK   82  A    between atoms: _237  and  _239
REMARK   83  A    between atoms: _239  and  _240
REMARK   84  A    between atoms: _239  and  _242
REMARK   85  A    between atoms: _242  and  _243
REMARK   86  A    between atoms: _243  and  _244
REMARK   87  A    between atoms: _244  and  _245
REMARK   88  A    between atoms: _245  and  _246
REMARK   89  A    between atoms: _250  and  _252
REMARK   90  A    between atoms: _252  and  _253
REMARK   91  A    between atoms: _252  and  _255
REMARK   92  A    between atoms: _258  and  _260
REMARK   93  A    between atoms: _260  and  _261
REMARK   94  A    between atoms: _260  and  _263
REMARK   95  A    between atoms: _263  and  _264
REMARK   96  A    between atoms: _264  and  _265
REMARK   97  A    between atoms: _270  and  _272
REMARK   98  A    between atoms: _272  and  _273
REMARK   99  A    between atoms: _272  and  _275
REMARK  100  A    between atoms: _275  and  _276
REMARK  101  A    between atoms: _279  and  _281
REMARK  102  A    between atoms: _281  and  _282
REMARK  103  A    between atoms: _285  and  _287
REMARK  104  A    between atoms: _287  and  _288
REMARK  105  A    between atoms: _287  and  _290
REMARK  106  A    between atoms: _293  and  _295
REMARK  107  A    between atoms: _295  and  _296
REMARK  108  A    between atoms: _295  and  _298
REMARK  109  A    between atoms: _298  and  _299
REMARK  110  A    between atoms: _302  and  _304
REMARK  111  A    between atoms: _304  and  _305
REMARK  112  A    between atoms: _307  and  _309
REMARK  113  A    between atoms: _309  and  _310
REMARK  114  A    between atoms: _312  and  _314
REMARK  115  A    between atoms: _314  and  _315
REMARK  116  A    between atoms: _314  and  _317
REMARK  117  A    between atoms: _317  and  _318
REMARK  118  A    between atoms: _320  and  _322
REMARK  119  A    between atoms: _322  and  _323
REMARK  120  A    between atoms: _322  and  _325
REMARK  121  A    between atoms: _325  and  _326
REMARK  122  A    between atoms: _329  and  _331
REMARK  123  A    between atoms: _331  and  _332
REMARK  124  A    between atoms: _331  and  _334
REMARK  125  A    between atoms: _334  and  _335
REMARK  126  A    between atoms: _338  and  _340
REMARK  127  A    between atoms: _340  and  _341
REMARK  128  A    between atoms: _340  and  _343
REMARK  129  A    between atoms: _343  and  _344
REMARK  130  A    between atoms: _348  and  _349
REMARK  131  A    between atoms: _355  and  _356
REMARK  132  A    between atoms: _361  and  _363
REMARK  133  A    between atoms: _363  and  _364
REMARK  134  A    between atoms: _363  and  _366
REMARK  135  A    between atoms: _366  and  _367
REMARK  136  A    between atoms: _370  and  _372
REMARK  137  A    between atoms: _372  and  _373
REMARK  138  A    between atoms: _372  and  _375
REMARK  139  A    between atoms: _375  and  _376
REMARK  140  A    between atoms: _379  and  _381
REMARK  141  A    between atoms: _381  and  _382
REMARK  142  A    between atoms: _381  and  _384
REMARK  143  A    between atoms: _386  and  _388
REMARK  144  A    between atoms: _388  and  _389
REMARK  145  A    between atoms: _388  and  _391
REMARK  146  A    between atoms: _394  and  _396
REMARK  147  A    between atoms: _396  and  _397
REMARK  148  A    between atoms: _396  and  _399
REMARK  149  A    between atoms: _399  and  _400
REMARK  150  A    between atoms: _410  and  _412
REMARK  151  A    between atoms: _412  and  _413
REMARK  152  A    between atoms: _412  and  _415
REMARK  153  A    between atoms: _415  and  _416
REMARK  154  A    between atoms: _421  and  _423
REMARK  155  A    between atoms: _423  and  _424
REMARK  156  A    between atoms: _423  and  _426
REMARK  157  A    between atoms: _426  and  _427
REMARK  158  A    between atoms: _427  and  _428
REMARK  159  A    between atoms: _428  and  _429
REMARK                            x       y       z     vdW  Elec       q    Type
REMARK                         _______ _______ _______ _____ _____    ______ ____
ROOT
ATOM      1  O   HOH     1      17.957  19.490  14.207  0.00  0.00    +0.000 OA
ENDROOT
TORSDOF 0
REMARK  Name = ../refined-set-2016/4z1j/4z1j_pocket.pdb
REMARK  159 active torsions:
REMARK  status: ('A' for Active; 'I' for Inactive)
REMARK    1  A    between atoms: _1  and  _3
REMARK    2  A    between atoms: _3  and  _4
REMARK    3  A    between atoms: _3  and  _6
REMARK    4  A    between atoms: _6  and  _7
REMARK    5  A    between atoms: _17  and  _19
REMARK    6  A    between atoms: _19  and  _20
REMARK    7  A    between atoms: _19  and  _22
REMARK    8  A    between atoms: _22  and  _23
REMARK    9  A    between atoms: _28  and  _29
REMARK   10  A    between atoms: _31  and  _33
REMARK   11  A    between atoms: _33  and  _34
REMARK   12  A    between atoms: _33  and  _36
REMARK   13  A    between atoms: _36  and  _37
REMARK   14  A    between atoms: _40  and  _41
REMARK   15  A    between atoms: _46  and  _48
REMARK   16  A    between atoms: _48  and  _49
REMARK   17  A    between atoms: _48  and  _51
REMARK   18  A    between atoms: _51  and  _52
REMARK   19  A    between atoms: _57  and  _59
REMARK   20  A    between atoms: _59  and  _60
REMARK   21  A    between atoms: _63  and  _65
REMARK   22  A    between atoms: _65  and  _66
REMARK   23  A    between atoms: _65  and  _68
REMARK   24  A    between atoms: _68  and  _69
REMARK   25  A    between atoms: _74  and  _76
REMARK   26  A    between atoms: _76  and  _77
REMARK   27  A    between atoms: _76  and  _79
REMARK   28  A    between atoms: _79  and  _80
REMARK   29  A    between atoms: _83  and  _85
REMARK   30  A    between atoms: _85  and  _86
REMARK   31  A    between atoms: _85  and  _88
REMARK   32  A    between atoms: _88  and  _89
REMARK   33  A    between atoms: _89  and  _90
REMARK   34  A    between atoms: _95  and  _97
REMARK   35  A    between atoms: _97  and  _98
REMARK   36  A    between atoms: _97  and  _100
REMARK   37  A    between atoms: _100  and  _101
REMARK   38  A    between atoms: _107  and  _109
REMARK   39  A    between atoms: _120  and  _123
REMARK   40  A    between atoms: _123  and  _124
REMARK   41  A    between atoms: _132  and  _133
REMARK   42  A    between atoms: _141  and  _143
REMARK   43  A    between atoms: _143  and  _144
REMARK   44  A    between atoms: _143  and  _146
REMARK   45  A    between atoms: _146  and  _147
REMARK   46  A    between atoms: _147  and  _148
REMARK   47  A    between atoms: _151  and  _153
REMARK   48  A    between atoms: _153  and  _154
REMARK   49  A    between atoms: _153  and  _156
REMARK   50  A    between atoms: _156  and  _157
REMARK   51  A    between atoms: _162  and  _164
REMARK   52  A    between atoms: _164  and  _165
REMARK   53  A    between atoms: _164  and  _167
REMARK   54  A    between atoms: _167  and  _168
REMARK   55  A    between atoms: _168  and  _169
REMARK   56  A    between atoms: _172  and  _174
REMARK   57  A    between atoms: _174  and  _175
REMARK   58  A    between atoms: _174  and  _177
REMARK   59  A    between atoms: _177  and  _178
REMARK   60  A    between atoms: _181  and  _183
REMARK   61  A    between atoms: _183  and  _184
REMARK   62  A    between atoms: _183  and  _186
REMARK   63  A    between atoms: _186  and  _187
REMARK   64  A    between atoms: _188  and  ZN_438
REMARK   65  A    between atoms: _192  and  _194
REMARK   66  A    between atoms: _194  and  _195
REMARK   67  A    between atoms: _194  and  _197
REMARK   68  A    between atoms: _197  and  _198
REMARK   69  A    between atoms: _201  and  _203
REMARK   70  A    between atoms: _203  and  _204
REMARK   71  A    between atoms: _203  and  _206
REMARK   72  A    between atoms: _209  and  _211
REMARK   73  A    between atoms: _211  and  _212
REMARK   74  A    between atoms: _211  and  _214
REMARK   75  A    between atoms: _214  and  _215
REMARK   76  A    between atoms: _220  and  _222
REMARK   77  A    between atoms: _222  and  _223
REMARK   78  A    between atoms: _222  and  _225
REMARK   79  A    between atoms: _225  and  _226
REMARK   80  A    between atoms: _232  and  _234
REMARK   81  A    between atoms: _234  and  _235
REMARK   82  A    between atoms: _237  and  _239
REMARK   83  A    between atoms: _239  and  _240
REMARK   84  A    between atoms: _239  and  _242
REMARK   85  A    between atoms: _242  and  _243
REMARK   86  A    between atoms: _243  and  _244
REMARK   87  A    between atoms: _244  and  _245
REMARK   88  A    between atoms: _245  and  _246
REMARK   89  A    between atoms: _250  and  _252
REMARK   90  A    between atoms: _252  and  _253
REMARK   91  A    between atoms: _252  and  _255
REMARK   92  A    between atoms: _258  and  _260
REMARK   93  A    between atoms: _260  and  _261
REMARK   94  A    between atoms: _260  and  _263
REMARK   95  A    between atoms: _263  and  _264
REMARK   96  A    between atoms: _264  and  _265
REMARK   97  A    between atoms: _270  and  _272
REMARK   98  A    between atoms: _272  and  _273
REMARK   99  A    between atoms: _272  and  _275
REMARK  100  A    between atoms: _275  and  _276
REMARK  101  A    between atoms: _279  and  _281
REMARK  102  A    between atoms: _281  and  _282
REMARK  103  A    between atoms: _285  and  _287
REMARK  104  A    between atoms: _287  and  _288
REMARK  105  A    between atoms: _287  and  _290
REMARK  106  A    between atoms: _293  and  _295
REMARK  107  A    between atoms: _295  and  _296
REMARK  108  A    between atoms: _295  and  _298
REMARK  109  A    between atoms: _298  and  _299
REMARK  110  A    between atoms: _302  and  _304
REMARK  111  A    between atoms: _304  and  _305
REMARK  112  A    between atoms: _307  and  _309
REMARK  113  A    between atoms: _309  and  _310
REMARK  114  A    between atoms: _312  and  _314
REMARK  115  A    between atoms: _314  and  _315
REMARK  116  A    between atoms: _314  and  _317
REMARK  117  A    between atoms: _317  and  _318
REMARK  118  A    between atoms: _320  and  _322
REMARK  119  A    between atoms: _322  and  _323
REMARK  120  A    between atoms: _322  and  _325
REMARK  121  A    between atoms: _325  and  _326
REMARK  122  A    between atoms: _329  and  _331
REMARK  123  A    between atoms: _331  and  _332
REMARK  124  A    between atoms: _331  and  _334
REMARK  125  A    between atoms: _334  and  _335
REMARK  126  A    between atoms: _338  and  _340
REMARK  127  A    between atoms: _340  and  _341
REMARK  128  A    between atoms: _340  and  _343
REMARK  129  A    between atoms: _343  and  _344
REMARK  130  A    between atoms: _348  and  _349
REMARK  131  A    between atoms: _355  and  _356
REMARK  132  A    between atoms: _361  and  _363
REMARK  133  A    between atoms: _363  and  _364
REMARK  134  A    between atoms: _363  and  _366
REMARK  135  A    between atoms: _366  and  _367
REMARK  136  A    between atoms: _370  and  _372
REMARK  137  A    between atoms: _372  and  _373
REMARK  138  A    between atoms: _372  and  _375
REMARK  139  A    between atoms: _375  and  _376
REMARK  140  A    between atoms: _379  and  _381
REMARK  141  A    between atoms: _381  and  _382
REMARK  142  A    between atoms: _381  and  _384
REMARK  143  A    between atoms: _386  and  _388
REMARK  144  A    between atoms: _388  and  _389
REMARK  145  A    between atoms: _388  and  _391
REMARK  146  A    between atoms: _394  and  _396
REMARK  147  A    between atoms: _396  and  _397
REMARK  148  A    between atoms: _396  and  _399
REMARK  149  A    between atoms: _399  and  _400
REMARK  150  A    between atoms: _410  and  _412
REMARK  151  A    between atoms: _412  and  _413
REMARK  152  A    between atoms: _412  and  _415
REMARK  153  A    between atoms: _415  and  _416
REMARK  154  A    between atoms: _421  and  _423
REMARK  155  A    between atoms: _423  and  _424
REMARK  156  A    between atoms: _423  and  _426
REMARK  157  A    between atoms: _426  and  _427
REMARK  158  A    between atoms: _427  and  _428
REMARK  159  A    between atoms: _428  and  _429
REMARK                            x       y       z     vdW  Elec       q    Type
REMARK                         _______ _______ _______ _____ _____    ______ ____
ROOT
ATOM      1  O   HOH     1      19.606   3.521  11.753  0.00  0.00    +0.000 OA
ENDROOT
TORSDOF 0
REMARK  Name = ../refined-set-2016/4z1j/4z1j_pocket.pdb
REMARK  159 active torsions:
REMARK  status: ('A' for Active; 'I' for Inactive)
REMARK    1  A    between atoms: _1  and  _3
REMARK    2  A    between atoms: _3  and  _4
REMARK    3  A    between atoms: _3  and  _6
REMARK    4  A    between atoms: _6  and  _7
REMARK    5  A    between atoms: _17  and  _19
REMARK    6  A    between atoms: _19  and  _20
REMARK    7  A    between atoms: _19  and  _22
REMARK    8  A    between atoms: _22  and  _23
REMARK    9  A    between atoms: _28  and  _29
REMARK   10  A    between atoms: _31  and  _33
REMARK   11  A    between atoms: _33  and  _34
REMARK   12  A    between atoms: _33  and  _36
REMARK   13  A    between atoms: _36  and  _37
REMARK   14  A    between atoms: _40  and  _41
REMARK   15  A    between atoms: _46  and  _48
REMARK   16  A    between atoms: _48  and  _49
REMARK   17  A    between atoms: _48  and  _51
REMARK   18  A    between atoms: _51  and  _52
REMARK   19  A    between atoms: _57  and  _59
REMARK   20  A    between atoms: _59  and  _60
REMARK   21  A    between atoms: _63  and  _65
REMARK   22  A    between atoms: _65  and  _66
REMARK   23  A    between atoms: _65  and  _68
REMARK   24  A    between atoms: _68  and  _69
REMARK   25  A    between atoms: _74  and  _76
REMARK   26  A    between atoms: _76  and  _77
REMARK   27  A    between atoms: _76  and  _79
REMARK   28  A    between atoms: _79  and  _80
REMARK   29  A    between atoms: _83  and  _85
REMARK   30  A    between atoms: _85  and  _86
REMARK   31  A    between atoms: _85  and  _88
REMARK   32  A    between atoms: _88  and  _89
REMARK   33  A    between atoms: _89  and  _90
REMARK   34  A    between atoms: _95  and  _97
REMARK   35  A    between atoms: _97  and  _98
REMARK   36  A    between atoms: _97  and  _100
REMARK   37  A    between atoms: _100  and  _101
REMARK   38  A    between atoms: _107  and  _109
REMARK   39  A    between atoms: _120  and  _123
REMARK   40  A    between atoms: _123  and  _124
REMARK   41  A    between atoms: _132  and  _133
REMARK   42  A    between atoms: _141  and  _143
REMARK   43  A    between atoms: _143  and  _144
REMARK   44  A    between atoms: _143  and  _146
REMARK   45  A    between atoms: _146  and  _147
REMARK   46  A    between atoms: _147  and  _148
REMARK   47  A    between atoms: _151  and  _153
REMARK   48  A    between atoms: _153  and  _154
REMARK   49  A    between atoms: _153  and  _156
REMARK   50  A    between atoms: _156  and  _157
REMARK   51  A    between atoms: _162  and  _164
REMARK   52  A    between atoms: _164  and  _165
REMARK   53  A    between atoms: _164  and  _167
REMARK   54  A    between atoms: _167  and  _168
REMARK   55  A    between atoms: _168  and  _169
REMARK   56  A    between atoms: _172  and  _174
REMARK   57  A    between atoms: _174  and  _175
REMARK   58  A    between atoms: _174  and  _177
REMARK   59  A    between atoms: _177  and  _178
REMARK   60  A    between atoms: _181  and  _183
REMARK   61  A    between atoms: _183  and  _184
REMARK   62  A    between atoms: _183  and  _186
REMARK   63  A    between atoms: _186  and  _187
REMARK   64  A    between atoms: _188  and  ZN_438
REMARK   65  A    between atoms: _192  and  _194
REMARK   66  A    between atoms: _194  and  _195
REMARK   67  A    between atoms: _194  and  _197
REMARK   68  A    between atoms: _197  and  _198
REMARK   69  A    between atoms: _201  and  _203
REMARK   70  A    between atoms: _203  and  _204
REMARK   71  A    between atoms: _203  and  _206
REMARK   72  A    between atoms: _209  and  _211
REMARK   73  A    between atoms: _211  and  _212
REMARK   74  A    between atoms: _211  and  _214
REMARK   75  A    between atoms: _214  and  _215
REMARK   76  A    between atoms: _220  and  _222
REMARK   77  A    between atoms: _222  and  _223
REMARK   78  A    between atoms: _222  and  _225
REMARK   79  A    between atoms: _225  and  _226
REMARK   80  A    between atoms: _232  and  _234
REMARK   81  A    between atoms: _234  and  _235
REMARK   82  A    between atoms: _237  and  _239
REMARK   83  A    between atoms: _239  and  _240
REMARK   84  A    between atoms: _239  and  _242
REMARK   85  A    between atoms: _242  and  _243
REMARK   86  A    between atoms: _243  and  _244
REMARK   87  A    between atoms: _244  and  _245
REMARK   88  A    between atoms: _245  and  _246
REMARK   89  A    between atoms: _250  and  _252
REMARK   90  A    between atoms: _252  and  _253
REMARK   91  A    between atoms: _252  and  _255
REMARK   92  A    between atoms: _258  and  _260
REMARK   93  A    between atoms: _260  and  _261
REMARK   94  A    between atoms: _260  and  _263
REMARK   95  A    between atoms: _263  and  _264
REMARK   96  A    between atoms: _264  and  _265
REMARK   97  A    between atoms: _270  and  _272
REMARK   98  A    between atoms: _272  and  _273
REMARK   99  A    between atoms: _272  and  _275
REMARK  100  A    between atoms: _275  and  _276
REMARK  101  A    between atoms: _279  and  _281
REMARK  102  A    between atoms: _281  and  _282
REMARK  103  A    between atoms: _285  and  _287
REMARK  104  A    between atoms: _287  and  _288
REMARK  105  A    between atoms: _287  and  _290
REMARK  106  A    between atoms: _293  and  _295
REMARK  107  A    between atoms: _295  and  _296
REMARK  108  A    between atoms: _295  and  _298
REMARK  109  A    between atoms: _298  and  _299
REMARK  110  A    between atoms: _302  and  _304
REMARK  111  A    between atoms: _304  and  _305
REMARK  112  A    between atoms: _307  and  _309
REMARK  113  A    between atoms: _309  and  _310
REMARK  114  A    between atoms: _312  and  _314
REMARK  115  A    between atoms: _314  and  _315
REMARK  116  A    between atoms: _314  and  _317
REMARK  117  A    between atoms: _317  and  _318
REMARK  118  A    between atoms: _320  and  _322
REMARK  119  A    between atoms: _322  and  _323
REMARK  120  A    between atoms: _322  and  _325
REMARK  121  A    between atoms: _325  and  _326
REMARK  122  A    between atoms: _329  and  _331
REMARK  123  A    between atoms: _331  and  _332
REMARK  124  A    between atoms: _331  and  _334
REMARK  125  A    between atoms: _334  and  _335
REMARK  126  A    between atoms: _338  and  _340
REMARK  127  A    between atoms: _340  and  _341
REMARK  128  A    between atoms: _340  and  _343
REMARK  129  A    between atoms: _343  and  _344
REMARK  130  A    between atoms: _348  and  _349
REMARK  131  A    between atoms: _355  and  _356
REMARK  132  A    between atoms: _361  and  _363
REMARK  133  A    between atoms: _363  and  _364
REMARK  134  A    between atoms: _363  and  _366
REMARK  135  A    between atoms: _366  and  _367
REMARK  136  A    between atoms: _370  and  _372
REMARK  137  A    between atoms: _372  and  _373
REMARK  138  A    between atoms: _372  and  _375
REMARK  139  A    between atoms: _375  and  _376
REMARK  140  A    between atoms: _379  and  _381
REMARK  141  A    between atoms: _381  and  _382
REMARK  142  A    between atoms: _381  and  _384
REMARK  143  A    between atoms: _386  and  _388
REMARK  144  A    between atoms: _388  and  _389
REMARK  145  A    between atoms: _388  and  _391
REMARK  146  A    between atoms: _394  and  _396
REMARK  147  A    between atoms: _396  and  _397
REMARK  148  A    between atoms: _396  and  _399
REMARK  149  A    between atoms: _399  and  _400
REMARK  150  A    between atoms: _410  and  _412
REMARK  151  A    between atoms: _412  and  _413
REMARK  152  A    between atoms: _412  and  _415
REMARK  153  A    between atoms: _415  and  _416
REMARK  154  A    between atoms: _421  and  _423
REMARK  155  A    between atoms: _423  and  _424
REMARK  156  A    between atoms: _423  and  _426
REMARK  157  A    between atoms: _426  and  _427
REMARK  158  A    between atoms: _427  and  _428
REMARK  159  A    between atoms: _428  and  _429
REMARK                            x       y       z     vdW  Elec       q    Type
REMARK                         _______ _______ _______ _____ _____    ______ ____
ROOT
ATOM      1  O   HOH     1      15.266  16.749  11.845  0.00  0.00    +0.000 OA
ENDROOT
TORSDOF 0
REMARK  Name = ../refined-set-2016/4z1j/4z1j_pocket.pdb
REMARK  159 active torsions:
REMARK  status: ('A' for Active; 'I' for Inactive)
REMARK    1  A    between atoms: _1  and  _3
REMARK    2  A    between atoms: _3  and  _4
REMARK    3  A    between atoms: _3  and  _6
REMARK    4  A    between atoms: _6  and  _7
REMARK    5  A    between atoms: _17  and  _19
REMARK    6  A    between atoms: _19  and  _20
REMARK    7  A    between atoms: _19  and  _22
REMARK    8  A    between atoms: _22  and  _23
REMARK    9  A    between atoms: _28  and  _29
REMARK   10  A    between atoms: _31  and  _33
REMARK   11  A    between atoms: _33  and  _34
REMARK   12  A    between atoms: _33  and  _36
REMARK   13  A    between atoms: _36  and  _37
REMARK   14  A    between atoms: _40  and  _41
REMARK   15  A    between atoms: _46  and  _48
REMARK   16  A    between atoms: _48  and  _49
REMARK   17  A    between atoms: _48  and  _51
REMARK   18  A    between atoms: _51  and  _52
REMARK   19  A    between atoms: _57  and  _59
REMARK   20  A    between atoms: _59  and  _60
REMARK   21  A    between atoms: _63  and  _65
REMARK   22  A    between atoms: _65  and  _66
REMARK   23  A    between atoms: _65  and  _68
REMARK   24  A    between atoms: _68  and  _69
REMARK   25  A    between atoms: _74  and  _76
REMARK   26  A    between atoms: _76  and  _77
REMARK   27  A    between atoms: _76  and  _79
REMARK   28  A    between atoms: _79  and  _80
REMARK   29  A    between atoms: _83  and  _85
REMARK   30  A    between atoms: _85  and  _86
REMARK   31  A    between atoms: _85  and  _88
REMARK   32  A    between atoms: _88  and  _89
REMARK   33  A    between atoms: _89  and  _90
REMARK   34  A    between atoms: _95  and  _97
REMARK   35  A    between atoms: _97  and  _98
REMARK   36  A    between atoms: _97  and  _100
REMARK   37  A    between atoms: _100  and  _101
REMARK   38  A    between atoms: _107  and  _109
REMARK   39  A    between atoms: _120  and  _123
REMARK   40  A    between atoms: _123  and  _124
REMARK   41  A    between atoms: _132  and  _133
REMARK   42  A    between atoms: _141  and  _143
REMARK   43  A    between atoms: _143  and  _144
REMARK   44  A    between atoms: _143  and  _146
REMARK   45  A    between atoms: _146  and  _147
REMARK   46  A    between atoms: _147  and  _148
REMARK   47  A    between atoms: _151  and  _153
REMARK   48  A    between atoms: _153  and  _154
REMARK   49  A    between atoms: _153  and  _156
REMARK   50  A    between atoms: _156  and  _157
REMARK   51  A    between atoms: _162  and  _164
REMARK   52  A    between atoms: _164  and  _165
REMARK   53  A    between atoms: _164  and  _167
REMARK   54  A    between atoms: _167  and  _168
REMARK   55  A    between atoms: _168  and  _169
REMARK   56  A    between atoms: _172  and  _174
REMARK   57  A    between atoms: _174  and  _175
REMARK   58  A    between atoms: _174  and  _177
REMARK   59  A    between atoms: _177  and  _178
REMARK   60  A    between atoms: _181  and  _183
REMARK   61  A    between atoms: _183  and  _184
REMARK   62  A    between atoms: _183  and  _186
REMARK   63  A    between atoms: _186  and  _187
REMARK   64  A    between atoms: _188  and  ZN_438
REMARK   65  A    between atoms: _192  and  _194
REMARK   66  A    between atoms: _194  and  _195
REMARK   67  A    between atoms: _194  and  _197
REMARK   68  A    between atoms: _197  and  _198
REMARK   69  A    between atoms: _201  and  _203
REMARK   70  A    between atoms: _203  and  _204
REMARK   71  A    between atoms: _203  and  _206
REMARK   72  A    between atoms: _209  and  _211
REMARK   73  A    between atoms: _211  and  _212
REMARK   74  A    between atoms: _211  and  _214
REMARK   75  A    between atoms: _214  and  _215
REMARK   76  A    between atoms: _220  and  _222
REMARK   77  A    between atoms: _222  and  _223
REMARK   78  A    between atoms: _222  and  _225
REMARK   79  A    between atoms: _225  and  _226
REMARK   80  A    between atoms: _232  and  _234
REMARK   81  A    between atoms: _234  and  _235
REMARK   82  A    between atoms: _237  and  _239
REMARK   83  A    between atoms: _239  and  _240
REMARK   84  A    between atoms: _239  and  _242
REMARK   85  A    between atoms: _242  and  _243
REMARK   86  A    between atoms: _243  and  _244
REMARK   87  A    between atoms: _244  and  _245
REMARK   88  A    between atoms: _245  and  _246
REMARK   89  A    between atoms: _250  and  _252
REMARK   90  A    between atoms: _252  and  _253
REMARK   91  A    between atoms: _252  and  _255
REMARK   92  A    between atoms: _258  and  _260
REMARK   93  A    between atoms: _260  and  _261
REMARK   94  A    between atoms: _260  and  _263
REMARK   95  A    between atoms: _263  and  _264
REMARK   96  A    between atoms: _264  and  _265
REMARK   97  A    between atoms: _270  and  _272
REMARK   98  A    between atoms: _272  and  _273
REMARK   99  A    between atoms: _272  and  _275
REMARK  100  A    between atoms: _275  and  _276
REMARK  101  A    between atoms: _279  and  _281
REMARK  102  A    between atoms: _281  and  _282
REMARK  103  A    between atoms: _285  and  _287
REMARK  104  A    between atoms: _287  and  _288
REMARK  105  A    between atoms: _287  and  _290
REMARK  106  A    between atoms: _293  and  _295
REMARK  107  A    between atoms: _295  and  _296
REMARK  108  A    between atoms: _295  and  _298
REMARK  109  A    between atoms: _298  and  _299
REMARK  110  A    between atoms: _302  and  _304
REMARK  111  A    between atoms: _304  and  _305
REMARK  112  A    between atoms: _307  and  _309
REMARK  113  A    between atoms: _309  and  _310
REMARK  114  A    between atoms: _312  and  _314
REMARK  115  A    between atoms: _314  and  _315
REMARK  116  A    between atoms: _314  and  _317
REMARK  117  A    between atoms: _317  and  _318
REMARK  118  A    between atoms: _320  and  _322
REMARK  119  A    between atoms: _322  and  _323
REMARK  120  A    between atoms: _322  and  _325
REMARK  121  A    between atoms: _325  and  _326
REMARK  122  A    between atoms: _329  and  _331
REMARK  123  A    between atoms: _331  and  _332
REMARK  124  A    between atoms: _331  and  _334
REMARK  125  A    between atoms: _334  and  _335
REMARK  126  A    between atoms: _338  and  _340
REMARK  127  A    between atoms: _340  and  _341
REMARK  128  A    between atoms: _340  and  _343
REMARK  129  A    between atoms: _343  and  _344
REMARK  130  A    between atoms: _348  and  _349
REMARK  131  A    between atoms: _355  and  _356
REMARK  132  A    between atoms: _361  and  _363
REMARK  133  A    between atoms: _363  and  _364
REMARK  134  A    between atoms: _363  and  _366
REMARK  135  A    between atoms: _366  and  _367
REMARK  136  A    between atoms: _370  and  _372
REMARK  137  A    between atoms: _372  and  _373
REMARK  138  A    between atoms: _372  and  _375
REMARK  139  A    between atoms: _375  and  _376
REMARK  140  A    between atoms: _379  and  _381
REMARK  141  A    between atoms: _381  and  _382
REMARK  142  A    between atoms: _381  and  _384
REMARK  143  A    between atoms: _386  and  _388
REMARK  144  A    between atoms: _388  and  _389
REMARK  145  A    between atoms: _388  and  _391
REMARK  146  A    between atoms: _394  and  _396
REMARK  147  A    between atoms: _396  and  _397
REMARK  148  A    between atoms: _396  and  _399
REMARK  149  A    between atoms: _399  and  _400
REMARK  150  A    between atoms: _410  and  _412
REMARK  151  A    between atoms: _412  and  _413
REMARK  152  A    between atoms: _412  and  _415
REMARK  153  A    between atoms: _415  and  _416
REMARK  154  A    between atoms: _421  and  _423
REMARK  155  A    between atoms: _423  and  _424
REMARK  156  A    between atoms: _423  and  _426
REMARK  157  A    between atoms: _426  and  _427
REMARK  158  A    between atoms: _427  and  _428
REMARK  159  A    between atoms: _428  and  _429
REMARK                            x       y       z     vdW  Elec       q    Type
REMARK                         _______ _______ _______ _____ _____    ______ ____
ROOT
ATOM      1  O   HOH     1      16.755   1.602  13.230  0.00  0.00    +0.000 OA
ENDROOT
TORSDOF 0
REMARK  Name = ../refined-set-2016/4z1j/4z1j_pocket.pdb
REMARK  159 active torsions:
REMARK  status: ('A' for Active; 'I' for Inactive)
REMARK    1  A    between atoms: _1  and  _3
REMARK    2  A    between atoms: _3  and  _4
REMARK    3  A    between atoms: _3  and  _6
REMARK    4  A    between atoms: _6  and  _7
REMARK    5  A    between atoms: _17  and  _19
REMARK    6  A    between atoms: _19  and  _20
REMARK    7  A    between atoms: _19  and  _22
REMARK    8  A    between atoms: _22  and  _23
REMARK    9  A    between atoms: _28  and  _29
REMARK   10  A    between atoms: _31  and  _33
REMARK   11  A    between atoms: _33  and  _34
REMARK   12  A    between atoms: _33  and  _36
REMARK   13  A    between atoms: _36  and  _37
REMARK   14  A    between atoms: _40  and  _41
REMARK   15  A    between atoms: _46  and  _48
REMARK   16  A    between atoms: _48  and  _49
REMARK   17  A    between atoms: _48  and  _51
REMARK   18  A    between atoms: _51  and  _52
REMARK   19  A    between atoms: _57  and  _59
REMARK   20  A    between atoms: _59  and  _60
REMARK   21  A    between atoms: _63  and  _65
REMARK   22  A    between atoms: _65  and  _66
REMARK   23  A    between atoms: _65  and  _68
REMARK   24  A    between atoms: _68  and  _69
REMARK   25  A    between atoms: _74  and  _76
REMARK   26  A    between atoms: _76  and  _77
REMARK   27  A    between atoms: _76  and  _79
REMARK   28  A    between atoms: _79  and  _80
REMARK   29  A    between atoms: _83  and  _85
REMARK   30  A    between atoms: _85  and  _86
REMARK   31  A    between atoms: _85  and  _88
REMARK   32  A    between atoms: _88  and  _89
REMARK   33  A    between atoms: _89  and  _90
REMARK   34  A    between atoms: _95  and  _97
REMARK   35  A    between atoms: _97  and  _98
REMARK   36  A    between atoms: _97  and  _100
REMARK   37  A    between atoms: _100  and  _101
REMARK   38  A    between atoms: _107  and  _109
REMARK   39  A    between atoms: _120  and  _123
REMARK   40  A    between atoms: _123  and  _124
REMARK   41  A    between atoms: _132  and  _133
REMARK   42  A    between atoms: _141  and  _143
REMARK   43  A    between atoms: _143  and  _144
REMARK   44  A    between atoms: _143  and  _146
REMARK   45  A    between atoms: _146  and  _147
REMARK   46  A    between atoms: _147  and  _148
REMARK   47  A    between atoms: _151  and  _153
REMARK   48  A    between atoms: _153  and  _154
REMARK   49  A    between atoms: _153  and  _156
REMARK   50  A    between atoms: _156  and  _157
REMARK   51  A    between atoms: _162  and  _164
REMARK   52  A    between atoms: _164  and  _165
REMARK   53  A    between atoms: _164  and  _167
REMARK   54  A    between atoms: _167  and  _168
REMARK   55  A    between atoms: _168  and  _169
REMARK   56  A    between atoms: _172  and  _174
REMARK   57  A    between atoms: _174  and  _175
REMARK   58  A    between atoms: _174  and  _177
REMARK   59  A    between atoms: _177  and  _178
REMARK   60  A    between atoms: _181  and  _183
REMARK   61  A    between atoms: _183  and  _184
REMARK   62  A    between atoms: _183  and  _186
REMARK   63  A    between atoms: _186  and  _187
REMARK   64  A    between atoms: _188  and  ZN_438
REMARK   65  A    between atoms: _192  and  _194
REMARK   66  A    between atoms: _194  and  _195
REMARK   67  A    between atoms: _194  and  _197
REMARK   68  A    between atoms: _197  and  _198
REMARK   69  A    between atoms: _201  and  _203
REMARK   70  A    between atoms: _203  and  _204
REMARK   71  A    between atoms: _203  and  _206
REMARK   72  A    between atoms: _209  and  _211
REMARK   73  A    between atoms: _211  and  _212
REMARK   74  A    between atoms: _211  and  _214
REMARK   75  A    between atoms: _214  and  _215
REMARK   76  A    between atoms: _220  and  _222
REMARK   77  A    between atoms: _222  and  _223
REMARK   78  A    between atoms: _222  and  _225
REMARK   79  A    between atoms: _225  and  _226
REMARK   80  A    between atoms: _232  and  _234
REMARK   81  A    between atoms: _234  and  _235
REMARK   82  A    between atoms: _237  and  _239
REMARK   83  A    between atoms: _239  and  _240
REMARK   84  A    between atoms: _239  and  _242
REMARK   85  A    between atoms: _242  and  _243
REMARK   86  A    between atoms: _243  and  _244
REMARK   87  A    between atoms: _244  and  _245
REMARK   88  A    between atoms: _245  and  _246
REMARK   89  A    between atoms: _250  and  _252
REMARK   90  A    between atoms: _252  and  _253
REMARK   91  A    between atoms: _252  and  _255
REMARK   92  A    between atoms: _258  and  _260
REMARK   93  A    between atoms: _260  and  _261
REMARK   94  A    between atoms: _260  and  _263
REMARK   95  A    between atoms: _263  and  _264
REMARK   96  A    between atoms: _264  and  _265
REMARK   97  A    between atoms: _270  and  _272
REMARK   98  A    between atoms: _272  and  _273
REMARK   99  A    between atoms: _272  and  _275
REMARK  100  A    between atoms: _275  and  _276
REMARK  101  A    between atoms: _279  and  _281
REMARK  102  A    between atoms: _281  and  _282
REMARK  103  A    between atoms: _285  and  _287
REMARK  104  A    between atoms: _287  and  _288
REMARK  105  A    between atoms: _287  and  _290
REMARK  106  A    between atoms: _293  and  _295
REMARK  107  A    between atoms: _295  and  _296
REMARK  108  A    between atoms: _295  and  _298
REMARK  109  A    between atoms: _298  and  _299
REMARK  110  A    between atoms: _302  and  _304
REMARK  111  A    between atoms: _304  and  _305
REMARK  112  A    between atoms: _307  and  _309
REMARK  113  A    between atoms: _309  and  _310
REMARK  114  A    between atoms: _312  and  _314
REMARK  115  A    between atoms: _314  and  _315
REMARK  116  A    between atoms: _314  and  _317
REMARK  117  A    between atoms: _317  and  _318
REMARK  118  A    between atoms: _320  and  _322
REMARK  119  A    between atoms: _322  and  _323
REMARK  120  A    between atoms: _322  and  _325
REMARK  121  A    between atoms: _325  and  _326
REMARK  122  A    between atoms: _329  and  _331
REMARK  123  A    between atoms: _331  and  _332
REMARK  124  A    between atoms: _331  and  _334
REMARK  125  A    between atoms: _334  and  _335
REMARK  126  A    between atoms: _338  and  _340
REMARK  127  A    between atoms: _340  and  _341
REMARK  128  A    between atoms: _340  and  _343
REMARK  129  A    between atoms: _343  and  _344
REMARK  130  A    between atoms: _348  and  _349
REMARK  131  A    between atoms: _355  and  _356
REMARK  132  A    between atoms: _361  and  _363
REMARK  133  A    between atoms: _363  and  _364
REMARK  134  A    between atoms: _363  and  _366
REMARK  135  A    between atoms: _366  and  _367
REMARK  136  A    between atoms: _370  and  _372
REMARK  137  A    between atoms: _372  and  _373
REMARK  138  A    between atoms: _372  and  _375
REMARK  139  A    between atoms: _375  and  _376
REMARK  140  A    between atoms: _379  and  _381
REMARK  141  A    between atoms: _381  and  _382
REMARK  142  A    between atoms: _381  and  _384
REMARK  143  A    between atoms: _386  and  _388
REMARK  144  A    between atoms: _388  and  _389
REMARK  145  A    between atoms: _388  and  _391
REMARK  146  A    between atoms: _394  and  _396
REMARK  147  A    between atoms: _396  and  _397
REMARK  148  A    between atoms: _396  and  _399
REMARK  149  A    between atoms: _399  and  _400
REMARK  150  A    between atoms: _410  and  _412
REMARK  151  A    between atoms: _412  and  _413
REMARK  152  A    between atoms: _412  and  _415
REMARK  153  A    between atoms: _415  and  _416
REMARK  154  A    between atoms: _421  and  _423
REMARK  155  A    between atoms: _423  and  _424
REMARK  156  A    between atoms: _423  and  _426
REMARK  157  A    between atoms: _426  and  _427
REMARK  158  A    between atoms: _427  and  _428
REMARK  159  A    between atoms: _428  and  _429
REMARK                            x       y       z     vdW  Elec       q    Type
REMARK                         _______ _______ _______ _____ _____    ______ ____
ROOT
ATOM      1  O   HOH     1      17.075   5.375  10.184  0.00  0.00    +0.000 OA
ENDROOT
TORSDOF 0
REMARK  Name = ../refined-set-2016/4z1j/4z1j_pocket.pdb
REMARK  159 active torsions:
REMARK  status: ('A' for Active; 'I' for Inactive)
REMARK    1  A    between atoms: _1  and  _3
REMARK    2  A    between atoms: _3  and  _4
REMARK    3  A    between atoms: _3  and  _6
REMARK    4  A    between atoms: _6  and  _7
REMARK    5  A    between atoms: _17  and  _19
REMARK    6  A    between atoms: _19  and  _20
REMARK    7  A    between atoms: _19  and  _22
REMARK    8  A    between atoms: _22  and  _23
REMARK    9  A    between atoms: _28  and  _29
REMARK   10  A    between atoms: _31  and  _33
REMARK   11  A    between atoms: _33  and  _34
REMARK   12  A    between atoms: _33  and  _36
REMARK   13  A    between atoms: _36  and  _37
REMARK   14  A    between atoms: _40  and  _41
REMARK   15  A    between atoms: _46  and  _48
REMARK   16  A    between atoms: _48  and  _49
REMARK   17  A    between atoms: _48  and  _51
REMARK   18  A    between atoms: _51  and  _52
REMARK   19  A    between atoms: _57  and  _59
REMARK   20  A    between atoms: _59  and  _60
REMARK   21  A    between atoms: _63  and  _65
REMARK   22  A    between atoms: _65  and  _66
REMARK   23  A    between atoms: _65  and  _68
REMARK   24  A    between atoms: _68  and  _69
REMARK   25  A    between atoms: _74  and  _76
REMARK   26  A    between atoms: _76  and  _77
REMARK   27  A    between atoms: _76  and  _79
REMARK   28  A    between atoms: _79  and  _80
REMARK   29  A    between atoms: _83  and  _85
REMARK   30  A    between atoms: _85  and  _86
REMARK   31  A    between atoms: _85  and  _88
REMARK   32  A    between atoms: _88  and  _89
REMARK   33  A    between atoms: _89  and  _90
REMARK   34  A    between atoms: _95  and  _97
REMARK   35  A    between atoms: _97  and  _98
REMARK   36  A    between atoms: _97  and  _100
REMARK   37  A    between atoms: _100  and  _101
REMARK   38  A    between atoms: _107  and  _109
REMARK   39  A    between atoms: _120  and  _123
REMARK   40  A    between atoms: _123  and  _124
REMARK   41  A    between atoms: _132  and  _133
REMARK   42  A    between atoms: _141  and  _143
REMARK   43  A    between atoms: _143  and  _144
REMARK   44  A    between atoms: _143  and  _146
REMARK   45  A    between atoms: _146  and  _147
REMARK   46  A    between atoms: _147  and  _148
REMARK   47  A    between atoms: _151  and  _153
REMARK   48  A    between atoms: _153  and  _154
REMARK   49  A    between atoms: _153  and  _156
REMARK   50  A    between atoms: _156  and  _157
REMARK   51  A    between atoms: _162  and  _164
REMARK   52  A    between atoms: _164  and  _165
REMARK   53  A    between atoms: _164  and  _167
REMARK   54  A    between atoms: _167  and  _168
REMARK   55  A    between atoms: _168  and  _169
REMARK   56  A    between atoms: _172  and  _174
REMARK   57  A    between atoms: _174  and  _175
REMARK   58  A    between atoms: _174  and  _177
REMARK   59  A    between atoms: _177  and  _178
REMARK   60  A    between atoms: _181  and  _183
REMARK   61  A    between atoms: _183  and  _184
REMARK   62  A    between atoms: _183  and  _186
REMARK   63  A    between atoms: _186  and  _187
REMARK   64  A    between atoms: _188  and  ZN_438
REMARK   65  A    between atoms: _192  and  _194
REMARK   66  A    between atoms: _194  and  _195
REMARK   67  A    between atoms: _194  and  _197
REMARK   68  A    between atoms: _197  and  _198
REMARK   69  A    between atoms: _201  and  _203
REMARK   70  A    between atoms: _203  and  _204
REMARK   71  A    between atoms: _203  and  _206
REMARK   72  A    between atoms: _209  and  _211
REMARK   73  A    between atoms: _211  and  _212
REMARK   74  A    between atoms: _211  and  _214
REMARK   75  A    between atoms: _214  and  _215
REMARK   76  A    between atoms: _220  and  _222
REMARK   77  A    between atoms: _222  and  _223
REMARK   78  A    between atoms: _222  and  _225
REMARK   79  A    between atoms: _225  and  _226
REMARK   80  A    between atoms: _232  and  _234
REMARK   81  A    between atoms: _234  and  _235
REMARK   82  A    between atoms: _237  and  _239
REMARK   83  A    between atoms: _239  and  _240
REMARK   84  A    between atoms: _239  and  _242
REMARK   85  A    between atoms: _242  and  _243
REMARK   86  A    between atoms: _243  and  _244
REMARK   87  A    between atoms: _244  and  _245
REMARK   88  A    between atoms: _245  and  _246
REMARK   89  A    between atoms: _250  and  _252
REMARK   90  A    between atoms: _252  and  _253
REMARK   91  A    between atoms: _252  and  _255
REMARK   92  A    between atoms: _258  and  _260
REMARK   93  A    between atoms: _260  and  _261
REMARK   94  A    between atoms: _260  and  _263
REMARK   95  A    between atoms: _263  and  _264
REMARK   96  A    between atoms: _264  and  _265
REMARK   97  A    between atoms: _270  and  _272
REMARK   98  A    between atoms: _272  and  _273
REMARK   99  A    between atoms: _272  and  _275
REMARK  100  A    between atoms: _275  and  _276
REMARK  101  A    between atoms: _279  and  _281
REMARK  102  A    between atoms: _281  and  _282
REMARK  103  A    between atoms: _285  and  _287
REMARK  104  A    between atoms: _287  and  _288
REMARK  105  A    between atoms: _287  and  _290
REMARK  106  A    between atoms: _293  and  _295
REMARK  107  A    between atoms: _295  and  _296
REMARK  108  A    between atoms: _295  and  _298
REMARK  109  A    between atoms: _298  and  _299
REMARK  110  A    between atoms: _302  and  _304
REMARK  111  A    between atoms: _304  and  _305
REMARK  112  A    between atoms: _307  and  _309
REMARK  113  A    between atoms: _309  and  _310
REMARK  114  A    between atoms: _312  and  _314
REMARK  115  A    between atoms: _314  and  _315
REMARK  116  A    between atoms: _314  and  _317
REMARK  117  A    between atoms: _317  and  _318
REMARK  118  A    between atoms: _320  and  _322
REMARK  119  A    between atoms: _322  and  _323
REMARK  120  A    between atoms: _322  and  _325
REMARK  121  A    between atoms: _325  and  _326
REMARK  122  A    between atoms: _329  and  _331
REMARK  123  A    between atoms: _331  and  _332
REMARK  124  A    between atoms: _331  and  _334
REMARK  125  A    between atoms: _334  and  _335
REMARK  126  A    between atoms: _338  and  _340
REMARK  127  A    between atoms: _340  and  _341
REMARK  128  A    between atoms: _340  and  _343
REMARK  129  A    between atoms: _343  and  _344
REMARK  130  A    between atoms: _348  and  _349
REMARK  131  A    between atoms: _355  and  _356
REMARK  132  A    between atoms: _361  and  _363
REMARK  133  A    between atoms: _363  and  _364
REMARK  134  A    between atoms: _363  and  _366
REMARK  135  A    between atoms: _366  and  _367
REMARK  136  A    between atoms: _370  and  _372
REMARK  137  A    between atoms: _372  and  _373
REMARK  138  A    between atoms: _372  and  _375
REMARK  139  A    between atoms: _375  and  _376
REMARK  140  A    between atoms: _379  and  _381
REMARK  141  A    between atoms: _381  and  _382
REMARK  142  A    between atoms: _381  and  _384
REMARK  143  A    between atoms: _386  and  _388
REMARK  144  A    between atoms: _388  and  _389
REMARK  145  A    between atoms: _388  and  _391
REMARK  146  A    between atoms: _394  and  _396
REMARK  147  A    between atoms: _396  and  _397
REMARK  148  A    between atoms: _396  and  _399
REMARK  149  A    between atoms: _399  and  _400
REMARK  150  A    between atoms: _410  and  _412
REMARK  151  A    between atoms: _412  and  _413
REMARK  152  A    between atoms: _412  and  _415
REMARK  153  A    between atoms: _415  and  _416
REMARK  154  A    between atoms: _421  and  _423
REMARK  155  A    between atoms: _423  and  _424
REMARK  156  A    between atoms: _423  and  _426
REMARK  157  A    between atoms: _426  and  _427
REMARK  158  A    between atoms: _427  and  _428
REMARK  159  A    between atoms: _428  and  _429
REMARK                            x       y       z     vdW  Elec       q    Type
REMARK                         _______ _______ _______ _____ _____    ______ ____
ROOT
ATOM      1  O   HOH     1      17.764   1.391  10.801  0.00  0.00    +0.000 OA
ENDROOT
TORSDOF 0
REMARK  Name = ../refined-set-2016/4z1j/4z1j_pocket.pdb
REMARK  159 active torsions:
REMARK  status: ('A' for Active; 'I' for Inactive)
REMARK    1  A    between atoms: _1  and  _3
REMARK    2  A    between atoms: _3  and  _4
REMARK    3  A    between atoms: _3  and  _6
REMARK    4  A    between atoms: _6  and  _7
REMARK    5  A    between atoms: _17  and  _19
REMARK    6  A    between atoms: _19  and  _20
REMARK    7  A    between atoms: _19  and  _22
REMARK    8  A    between atoms: _22  and  _23
REMARK    9  A    between atoms: _28  and  _29
REMARK   10  A    between atoms: _31  and  _33
REMARK   11  A    between atoms: _33  and  _34
REMARK   12  A    between atoms: _33  and  _36
REMARK   13  A    between atoms: _36  and  _37
REMARK   14  A    between atoms: _40  and  _41
REMARK   15  A    between atoms: _46  and  _48
REMARK   16  A    between atoms: _48  and  _49
REMARK   17  A    between atoms: _48  and  _51
REMARK   18  A    between atoms: _51  and  _52
REMARK   19  A    between atoms: _57  and  _59
REMARK   20  A    between atoms: _59  and  _60
REMARK   21  A    between atoms: _63  and  _65
REMARK   22  A    between atoms: _65  and  _66
REMARK   23  A    between atoms: _65  and  _68
REMARK   24  A    between atoms: _68  and  _69
REMARK   25  A    between atoms: _74  and  _76
REMARK   26  A    between atoms: _76  and  _77
REMARK   27  A    between atoms: _76  and  _79
REMARK   28  A    between atoms: _79  and  _80
REMARK   29  A    between atoms: _83  and  _85
REMARK   30  A    between atoms: _85  and  _86
REMARK   31  A    between atoms: _85  and  _88
REMARK   32  A    between atoms: _88  and  _89
REMARK   33  A    between atoms: _89  and  _90
REMARK   34  A    between atoms: _95  and  _97
REMARK   35  A    between atoms: _97  and  _98
REMARK   36  A    between atoms: _97  and  _100
REMARK   37  A    between atoms: _100  and  _101
REMARK   38  A    between atoms: _107  and  _109
REMARK   39  A    between atoms: _120  and  _123
REMARK   40  A    between atoms: _123  and  _124
REMARK   41  A    between atoms: _132  and  _133
REMARK   42  A    between atoms: _141  and  _143
REMARK   43  A    between atoms: _143  and  _144
REMARK   44  A    between atoms: _143  and  _146
REMARK   45  A    between atoms: _146  and  _147
REMARK   46  A    between atoms: _147  and  _148
REMARK   47  A    between atoms: _151  and  _153
REMARK   48  A    between atoms: _153  and  _154
REMARK   49  A    between atoms: _153  and  _156
REMARK   50  A    between atoms: _156  and  _157
REMARK   51  A    between atoms: _162  and  _164
REMARK   52  A    between atoms: _164  and  _165
REMARK   53  A    between atoms: _164  and  _167
REMARK   54  A    between atoms: _167  and  _168
REMARK   55  A    between atoms: _168  and  _169
REMARK   56  A    between atoms: _172  and  _174
REMARK   57  A    between atoms: _174  and  _175
REMARK   58  A    between atoms: _174  and  _177
REMARK   59  A    between atoms: _177  and  _178
REMARK   60  A    between atoms: _181  and  _183
REMARK   61  A    between atoms: _183  and  _184
REMARK   62  A    between atoms: _183  and  _186
REMARK   63  A    between atoms: _186  and  _187
REMARK   64  A    between atoms: _188  and  ZN_438
REMARK   65  A    between atoms: _192  and  _194
REMARK   66  A    between atoms: _194  and  _195
REMARK   67  A    between atoms: _194  and  _197
REMARK   68  A    between atoms: _197  and  _198
REMARK   69  A    between atoms: _201  and  _203
REMARK   70  A    between atoms: _203  and  _204
REMARK   71  A    between atoms: _203  and  _206
REMARK   72  A    between atoms: _209  and  _211
REMARK   73  A    between atoms: _211  and  _212
REMARK   74  A    between atoms: _211  and  _214
REMARK   75  A    between atoms: _214  and  _215
REMARK   76  A    between atoms: _220  and  _222
REMARK   77  A    between atoms: _222  and  _223
REMARK   78  A    between atoms: _222  and  _225
REMARK   79  A    between atoms: _225  and  _226
REMARK   80  A    between atoms: _232  and  _234
REMARK   81  A    between atoms: _234  and  _235
REMARK   82  A    between atoms: _237  and  _239
REMARK   83  A    between atoms: _239  and  _240
REMARK   84  A    between atoms: _239  and  _242
REMARK   85  A    between atoms: _242  and  _243
REMARK   86  A    between atoms: _243  and  _244
REMARK   87  A    between atoms: _244  and  _245
REMARK   88  A    between atoms: _245  and  _246
REMARK   89  A    between atoms: _250  and  _252
REMARK   90  A    between atoms: _252  and  _253
REMARK   91  A    between atoms: _252  and  _255
REMARK   92  A    between atoms: _258  and  _260
REMARK   93  A    between atoms: _260  and  _261
REMARK   94  A    between atoms: _260  and  _263
REMARK   95  A    between atoms: _263  and  _264
REMARK   96  A    between atoms: _264  and  _265
REMARK   97  A    between atoms: _270  and  _272
REMARK   98  A    between atoms: _272  and  _273
REMARK   99  A    between atoms: _272  and  _275
REMARK  100  A    between atoms: _275  and  _276
REMARK  101  A    between atoms: _279  and  _281
REMARK  102  A    between atoms: _281  and  _282
REMARK  103  A    between atoms: _285  and  _287
REMARK  104  A    between atoms: _287  and  _288
REMARK  105  A    between atoms: _287  and  _290
REMARK  106  A    between atoms: _293  and  _295
REMARK  107  A    between atoms: _295  and  _296
REMARK  108  A    between atoms: _295  and  _298
REMARK  109  A    between atoms: _298  and  _299
REMARK  110  A    between atoms: _302  and  _304
REMARK  111  A    between atoms: _304  and  _305
REMARK  112  A    between atoms: _307  and  _309
REMARK  113  A    between atoms: _309  and  _310
REMARK  114  A    between atoms: _312  and  _314
REMARK  115  A    between atoms: _314  and  _315
REMARK  116  A    between atoms: _314  and  _317
REMARK  117  A    between atoms: _317  and  _318
REMARK  118  A    between atoms: _320  and  _322
REMARK  119  A    between atoms: _322  and  _323
REMARK  120  A    between atoms: _322  and  _325
REMARK  121  A    between atoms: _325  and  _326
REMARK  122  A    between atoms: _329  and  _331
REMARK  123  A    between atoms: _331  and  _332
REMARK  124  A    between atoms: _331  and  _334
REMARK  125  A    between atoms: _334  and  _335
REMARK  126  A    between atoms: _338  and  _340
REMARK  127  A    between atoms: _340  and  _341
REMARK  128  A    between atoms: _340  and  _343
REMARK  129  A    between atoms: _343  and  _344
REMARK  130  A    between atoms: _348  and  _349
REMARK  131  A    between atoms: _355  and  _356
REMARK  132  A    between atoms: _361  and  _363
REMARK  133  A    between atoms: _363  and  _364
REMARK  134  A    between atoms: _363  and  _366
REMARK  135  A    between atoms: _366  and  _367
REMARK  136  A    between atoms: _370  and  _372
REMARK  137  A    between atoms: _372  and  _373
REMARK  138  A    between atoms: _372  and  _375
REMARK  139  A    between atoms: _375  and  _376
REMARK  140  A    between atoms: _379  and  _381
REMARK  141  A    between atoms: _381  and  _382
REMARK  142  A    between atoms: _381  and  _384
REMARK  143  A    between atoms: _386  and  _388
REMARK  144  A    between atoms: _388  and  _389
REMARK  145  A    between atoms: _388  and  _391
REMARK  146  A    between atoms: _394  and  _396
REMARK  147  A    between atoms: _396  and  _397
REMARK  148  A    between atoms: _396  and  _399
REMARK  149  A    between atoms: _399  and  _400
REMARK  150  A    between atoms: _410  and  _412
REMARK  151  A    between atoms: _412  and  _413
REMARK  152  A    between atoms: _412  and  _415
REMARK  153  A    between atoms: _415  and  _416
REMARK  154  A    between atoms: _421  and  _423
REMARK  155  A    between atoms: _423  and  _424
REMARK  156  A    between atoms: _423  and  _426
REMARK  157  A    between atoms: _426  and  _427
REMARK  158  A    between atoms: _427  and  _428
REMARK  159  A    between atoms: _428  and  _429
REMARK                            x       y       z     vdW  Elec       q    Type
REMARK                         _______ _______ _______ _____ _____    ______ ____
ROOT
ATOM      1  O   HOH     1      12.822   9.078   8.471  0.00  0.00    +0.000 OA
ENDROOT
TORSDOF 0
REMARK  Name = ../refined-set-2016/4z1j/4z1j_pocket.pdb
REMARK  159 active torsions:
REMARK  status: ('A' for Active; 'I' for Inactive)
REMARK    1  A    between atoms: _1  and  _3
REMARK    2  A    between atoms: _3  and  _4
REMARK    3  A    between atoms: _3  and  _6
REMARK    4  A    between atoms: _6  and  _7
REMARK    5  A    between atoms: _17  and  _19
REMARK    6  A    between atoms: _19  and  _20
REMARK    7  A    between atoms: _19  and  _22
REMARK    8  A    between atoms: _22  and  _23
REMARK    9  A    between atoms: _28  and  _29
REMARK   10  A    between atoms: _31  and  _33
REMARK   11  A    between atoms: _33  and  _34
REMARK   12  A    between atoms: _33  and  _36
REMARK   13  A    between atoms: _36  and  _37
REMARK   14  A    between atoms: _40  and  _41
REMARK   15  A    between atoms: _46  and  _48
REMARK   16  A    between atoms: _48  and  _49
REMARK   17  A    between atoms: _48  and  _51
REMARK   18  A    between atoms: _51  and  _52
REMARK   19  A    between atoms: _57  and  _59
REMARK   20  A    between atoms: _59  and  _60
REMARK   21  A    between atoms: _63  and  _65
REMARK   22  A    between atoms: _65  and  _66
REMARK   23  A    between atoms: _65  and  _68
REMARK   24  A    between atoms: _68  and  _69
REMARK   25  A    between atoms: _74  and  _76
REMARK   26  A    between atoms: _76  and  _77
REMARK   27  A    between atoms: _76  and  _79
REMARK   28  A    between atoms: _79  and  _80
REMARK   29  A    between atoms: _83  and  _85
REMARK   30  A    between atoms: _85  and  _86
REMARK   31  A    between atoms: _85  and  _88
REMARK   32  A    between atoms: _88  and  _89
REMARK   33  A    between atoms: _89  and  _90
REMARK   34  A    between atoms: _95  and  _97
REMARK   35  A    between atoms: _97  and  _98
REMARK   36  A    between atoms: _97  and  _100
REMARK   37  A    between atoms: _100  and  _101
REMARK   38  A    between atoms: _107  and  _109
REMARK   39  A    between atoms: _120  and  _123
REMARK   40  A    between atoms: _123  and  _124
REMARK   41  A    between atoms: _132  and  _133
REMARK   42  A    between atoms: _141  and  _143
REMARK   43  A    between atoms: _143  and  _144
REMARK   44  A    between atoms: _143  and  _146
REMARK   45  A    between atoms: _146  and  _147
REMARK   46  A    between atoms: _147  and  _148
REMARK   47  A    between atoms: _151  and  _153
REMARK   48  A    between atoms: _153  and  _154
REMARK   49  A    between atoms: _153  and  _156
REMARK   50  A    between atoms: _156  and  _157
REMARK   51  A    between atoms: _162  and  _164
REMARK   52  A    between atoms: _164  and  _165
REMARK   53  A    between atoms: _164  and  _167
REMARK   54  A    between atoms: _167  and  _168
REMARK   55  A    between atoms: _168  and  _169
REMARK   56  A    between atoms: _172  and  _174
REMARK   57  A    between atoms: _174  and  _175
REMARK   58  A    between atoms: _174  and  _177
REMARK   59  A    between atoms: _177  and  _178
REMARK   60  A    between atoms: _181  and  _183
REMARK   61  A    between atoms: _183  and  _184
REMARK   62  A    between atoms: _183  and  _186
REMARK   63  A    between atoms: _186  and  _187
REMARK   64  A    between atoms: _188  and  ZN_438
REMARK   65  A    between atoms: _192  and  _194
REMARK   66  A    between atoms: _194  and  _195
REMARK   67  A    between atoms: _194  and  _197
REMARK   68  A    between atoms: _197  and  _198
REMARK   69  A    between atoms: _201  and  _203
REMARK   70  A    between atoms: _203  and  _204
REMARK   71  A    between atoms: _203  and  _206
REMARK   72  A    between atoms: _209  and  _211
REMARK   73  A    between atoms: _211  and  _212
REMARK   74  A    between atoms: _211  and  _214
REMARK   75  A    between atoms: _214  and  _215
REMARK   76  A    between atoms: _220  and  _222
REMARK   77  A    between atoms: _222  and  _223
REMARK   78  A    between atoms: _222  and  _225
REMARK   79  A    between atoms: _225  and  _226
REMARK   80  A    between atoms: _232  and  _234
REMARK   81  A    between atoms: _234  and  _235
REMARK   82  A    between atoms: _237  and  _239
REMARK   83  A    between atoms: _239  and  _240
REMARK   84  A    between atoms: _239  and  _242
REMARK   85  A    between atoms: _242  and  _243
REMARK   86  A    between atoms: _243  and  _244
REMARK   87  A    between atoms: _244  and  _245
REMARK   88  A    between atoms: _245  and  _246
REMARK   89  A    between atoms: _250  and  _252
REMARK   90  A    between atoms: _252  and  _253
REMARK   91  A    between atoms: _252  and  _255
REMARK   92  A    between atoms: _258  and  _260
REMARK   93  A    between atoms: _260  and  _261
REMARK   94  A    between atoms: _260  and  _263
REMARK   95  A    between atoms: _263  and  _264
REMARK   96  A    between atoms: _264  and  _265
REMARK   97  A    between atoms: _270  and  _272
REMARK   98  A    between atoms: _272  and  _273
REMARK   99  A    between atoms: _272  and  _275
REMARK  100  A    between atoms: _275  and  _276
REMARK  101  A    between atoms: _279  and  _281
REMARK  102  A    between atoms: _281  and  _282
REMARK  103  A    between atoms: _285  and  _287
REMARK  104  A    between atoms: _287  and  _288
REMARK  105  A    between atoms: _287  and  _290
REMARK  106  A    between atoms: _293  and  _295
REMARK  107  A    between atoms: _295  and  _296
REMARK  108  A    between atoms: _295  and  _298
REMARK  109  A    between atoms: _298  and  _299
REMARK  110  A    between atoms: _302  and  _304
REMARK  111  A    between atoms: _304  and  _305
REMARK  112  A    between atoms: _307  and  _309
REMARK  113  A    between atoms: _309  and  _310
REMARK  114  A    between atoms: _312  and  _314
REMARK  115  A    between atoms: _314  and  _315
REMARK  116  A    between atoms: _314  and  _317
REMARK  117  A    between atoms: _317  and  _318
REMARK  118  A    between atoms: _320  and  _322
REMARK  119  A    between atoms: _322  and  _323
REMARK  120  A    between atoms: _322  and  _325
REMARK  121  A    between atoms: _325  and  _326
REMARK  122  A    between atoms: _329  and  _331
REMARK  123  A    between atoms: _331  and  _332
REMARK  124  A    between atoms: _331  and  _334
REMARK  125  A    between atoms: _334  and  _335
REMARK  126  A    between atoms: _338  and  _340
REMARK  127  A    between atoms: _340  and  _341
REMARK  128  A    between atoms: _340  and  _343
REMARK  129  A    between atoms: _343  and  _344
REMARK  130  A    between atoms: _348  and  _349
REMARK  131  A    between atoms: _355  and  _356
REMARK  132  A    between atoms: _361  and  _363
REMARK  133  A    between atoms: _363  and  _364
REMARK  134  A    between atoms: _363  and  _366
REMARK  135  A    between atoms: _366  and  _367
REMARK  136  A    between atoms: _370  and  _372
REMARK  137  A    between atoms: _372  and  _373
REMARK  138  A    between atoms: _372  and  _375
REMARK  139  A    between atoms: _375  and  _376
REMARK  140  A    between atoms: _379  and  _381
REMARK  141  A    between atoms: _381  and  _382
REMARK  142  A    between atoms: _381  and  _384
REMARK  143  A    between atoms: _386  and  _388
REMARK  144  A    between atoms: _388  and  _389
REMARK  145  A    between atoms: _388  and  _391
REMARK  146  A    between atoms: _394  and  _396
REMARK  147  A    between atoms: _396  and  _397
REMARK  148  A    between atoms: _396  and  _399
REMARK  149  A    between atoms: _399  and  _400
REMARK  150  A    between atoms: _410  and  _412
REMARK  151  A    between atoms: _412  and  _413
REMARK  152  A    between atoms: _412  and  _415
REMARK  153  A    between atoms: _415  and  _416
REMARK  154  A    between atoms: _421  and  _423
REMARK  155  A    between atoms: _423  and  _424
REMARK  156  A    between atoms: _423  and  _426
REMARK  157  A    between atoms: _426  and  _427
REMARK  158  A    between atoms: _427  and  _428
REMARK  159  A    between atoms: _428  and  _429
REMARK                            x       y       z     vdW  Elec       q    Type
REMARK                         _______ _______ _______ _____ _____    ______ ____
ROOT
ATOM      1  O   HOH     1      23.389  14.581  20.116  0.00  0.00    +0.000 OA
ENDROOT
TORSDOF 0
REMARK  Name = ../refined-set-2016/4z1j/4z1j_pocket.pdb
REMARK  159 active torsions:
REMARK  status: ('A' for Active; 'I' for Inactive)
REMARK    1  A    between atoms: _1  and  _3
REMARK    2  A    between atoms: _3  and  _4
REMARK    3  A    between atoms: _3  and  _6
REMARK    4  A    between atoms: _6  and  _7
REMARK    5  A    between atoms: _17  and  _19
REMARK    6  A    between atoms: _19  and  _20
REMARK    7  A    between atoms: _19  and  _22
REMARK    8  A    between atoms: _22  and  _23
REMARK    9  A    between atoms: _28  and  _29
REMARK   10  A    between atoms: _31  and  _33
REMARK   11  A    between atoms: _33  and  _34
REMARK   12  A    between atoms: _33  and  _36
REMARK   13  A    between atoms: _36  and  _37
REMARK   14  A    between atoms: _40  and  _41
REMARK   15  A    between atoms: _46  and  _48
REMARK   16  A    between atoms: _48  and  _49
REMARK   17  A    between atoms: _48  and  _51
REMARK   18  A    between atoms: _51  and  _52
REMARK   19  A    between atoms: _57  and  _59
REMARK   20  A    between atoms: _59  and  _60
REMARK   21  A    between atoms: _63  and  _65
REMARK   22  A    between atoms: _65  and  _66
REMARK   23  A    between atoms: _65  and  _68
REMARK   24  A    between atoms: _68  and  _69
REMARK   25  A    between atoms: _74  and  _76
REMARK   26  A    between atoms: _76  and  _77
REMARK   27  A    between atoms: _76  and  _79
REMARK   28  A    between atoms: _79  and  _80
REMARK   29  A    between atoms: _83  and  _85
REMARK   30  A    between atoms: _85  and  _86
REMARK   31  A    between atoms: _85  and  _88
REMARK   32  A    between atoms: _88  and  _89
REMARK   33  A    between atoms: _89  and  _90
REMARK   34  A    between atoms: _95  and  _97
REMARK   35  A    between atoms: _97  and  _98
REMARK   36  A    between atoms: _97  and  _100
REMARK   37  A    between atoms: _100  and  _101
REMARK   38  A    between atoms: _107  and  _109
REMARK   39  A    between atoms: _120  and  _123
REMARK   40  A    between atoms: _123  and  _124
REMARK   41  A    between atoms: _132  and  _133
REMARK   42  A    between atoms: _141  and  _143
REMARK   43  A    between atoms: _143  and  _144
REMARK   44  A    between atoms: _143  and  _146
REMARK   45  A    between atoms: _146  and  _147
REMARK   46  A    between atoms: _147  and  _148
REMARK   47  A    between atoms: _151  and  _153
REMARK   48  A    between atoms: _153  and  _154
REMARK   49  A    between atoms: _153  and  _156
REMARK   50  A    between atoms: _156  and  _157
REMARK   51  A    between atoms: _162  and  _164
REMARK   52  A    between atoms: _164  and  _165
REMARK   53  A    between atoms: _164  and  _167
REMARK   54  A    between atoms: _167  and  _168
REMARK   55  A    between atoms: _168  and  _169
REMARK   56  A    between atoms: _172  and  _174
REMARK   57  A    between atoms: _174  and  _175
REMARK   58  A    between atoms: _174  and  _177
REMARK   59  A    between atoms: _177  and  _178
REMARK   60  A    between atoms: _181  and  _183
REMARK   61  A    between atoms: _183  and  _184
REMARK   62  A    between atoms: _183  and  _186
REMARK   63  A    between atoms: _186  and  _187
REMARK   64  A    between atoms: _188  and  ZN_438
REMARK   65  A    between atoms: _192  and  _194
REMARK   66  A    between atoms: _194  and  _195
REMARK   67  A    between atoms: _194  and  _197
REMARK   68  A    between atoms: _197  and  _198
REMARK   69  A    between atoms: _201  and  _203
REMARK   70  A    between atoms: _203  and  _204
REMARK   71  A    between atoms: _203  and  _206
REMARK   72  A    between atoms: _209  and  _211
REMARK   73  A    between atoms: _211  and  _212
REMARK   74  A    between atoms: _211  and  _214
REMARK   75  A    between atoms: _214  and  _215
REMARK   76  A    between atoms: _220  and  _222
REMARK   77  A    between atoms: _222  and  _223
REMARK   78  A    between atoms: _222  and  _225
REMARK   79  A    between atoms: _225  and  _226
REMARK   80  A    between atoms: _232  and  _234
REMARK   81  A    between atoms: _234  and  _235
REMARK   82  A    between atoms: _237  and  _239
REMARK   83  A    between atoms: _239  and  _240
REMARK   84  A    between atoms: _239  and  _242
REMARK   85  A    between atoms: _242  and  _243
REMARK   86  A    between atoms: _243  and  _244
REMARK   87  A    between atoms: _244  and  _245
REMARK   88  A    between atoms: _245  and  _246
REMARK   89  A    between atoms: _250  and  _252
REMARK   90  A    between atoms: _252  and  _253
REMARK   91  A    between atoms: _252  and  _255
REMARK   92  A    between atoms: _258  and  _260
REMARK   93  A    between atoms: _260  and  _261
REMARK   94  A    between atoms: _260  and  _263
REMARK   95  A    between atoms: _263  and  _264
REMARK   96  A    between atoms: _264  and  _265
REMARK   97  A    between atoms: _270  and  _272
REMARK   98  A    between atoms: _272  and  _273
REMARK   99  A    between atoms: _272  and  _275
REMARK  100  A    between atoms: _275  and  _276
REMARK  101  A    between atoms: _279  and  _281
REMARK  102  A    between atoms: _281  and  _282
REMARK  103  A    between atoms: _285  and  _287
REMARK  104  A    between atoms: _287  and  _288
REMARK  105  A    between atoms: _287  and  _290
REMARK  106  A    between atoms: _293  and  _295
REMARK  107  A    between atoms: _295  and  _296
REMARK  108  A    between atoms: _295  and  _298
REMARK  109  A    between atoms: _298  and  _299
REMARK  110  A    between atoms: _302  and  _304
REMARK  111  A    between atoms: _304  and  _305
REMARK  112  A    between atoms: _307  and  _309
REMARK  113  A    between atoms: _309  and  _310
REMARK  114  A    between atoms: _312  and  _314
REMARK  115  A    between atoms: _314  and  _315
REMARK  116  A    between atoms: _314  and  _317
REMARK  117  A    between atoms: _317  and  _318
REMARK  118  A    between atoms: _320  and  _322
REMARK  119  A    between atoms: _322  and  _323
REMARK  120  A    between atoms: _322  and  _325
REMARK  121  A    between atoms: _325  and  _326
REMARK  122  A    between atoms: _329  and  _331
REMARK  123  A    between atoms: _331  and  _332
REMARK  124  A    between atoms: _331  and  _334
REMARK  125  A    between atoms: _334  and  _335
REMARK  126  A    between atoms: _338  and  _340
REMARK  127  A    between atoms: _340  and  _341
REMARK  128  A    between atoms: _340  and  _343
REMARK  129  A    between atoms: _343  and  _344
REMARK  130  A    between atoms: _348  and  _349
REMARK  131  A    between atoms: _355  and  _356
REMARK  132  A    between atoms: _361  and  _363
REMARK  133  A    between atoms: _363  and  _364
REMARK  134  A    between atoms: _363  and  _366
REMARK  135  A    between atoms: _366  and  _367
REMARK  136  A    between atoms: _370  and  _372
REMARK  137  A    between atoms: _372  and  _373
REMARK  138  A    between atoms: _372  and  _375
REMARK  139  A    between atoms: _375  and  _376
REMARK  140  A    between atoms: _379  and  _381
REMARK  141  A    between atoms: _381  and  _382
REMARK  142  A    between atoms: _381  and  _384
REMARK  143  A    between atoms: _386  and  _388
REMARK  144  A    between atoms: _388  and  _389
REMARK  145  A    between atoms: _388  and  _391
REMARK  146  A    between atoms: _394  and  _396
REMARK  147  A    between atoms: _396  and  _397
REMARK  148  A    between atoms: _396  and  _399
REMARK  149  A    between atoms: _399  and  _400
REMARK  150  A    between atoms: _410  and  _412
REMARK  151  A    between atoms: _412  and  _413
REMARK  152  A    between atoms: _412  and  _415
REMARK  153  A    between atoms: _415  and  _416
REMARK  154  A    between atoms: _421  and  _423
REMARK  155  A    between atoms: _423  and  _424
REMARK  156  A    between atoms: _423  and  _426
REMARK  157  A    between atoms: _426  and  _427
REMARK  158  A    between atoms: _427  and  _428
REMARK  159  A    between atoms: _428  and  _429
REMARK                            x       y       z     vdW  Elec       q    Type
REMARK                         _______ _______ _______ _____ _____    ______ ____
ROOT
ATOM      1  O   HOH     1      22.535   9.400  12.469  0.00  0.00    +0.000 OA
ENDROOT
TORSDOF 0
REMARK  Name = ../refined-set-2016/4z1j/4z1j_pocket.pdb
REMARK  159 active torsions:
REMARK  status: ('A' for Active; 'I' for Inactive)
REMARK    1  A    between atoms: _1  and  _3
REMARK    2  A    between atoms: _3  and  _4
REMARK    3  A    between atoms: _3  and  _6
REMARK    4  A    between atoms: _6  and  _7
REMARK    5  A    between atoms: _17  and  _19
REMARK    6  A    between atoms: _19  and  _20
REMARK    7  A    between atoms: _19  and  _22
REMARK    8  A    between atoms: _22  and  _23
REMARK    9  A    between atoms: _28  and  _29
REMARK   10  A    between atoms: _31  and  _33
REMARK   11  A    between atoms: _33  and  _34
REMARK   12  A    between atoms: _33  and  _36
REMARK   13  A    between atoms: _36  and  _37
REMARK   14  A    between atoms: _40  and  _41
REMARK   15  A    between atoms: _46  and  _48
REMARK   16  A    between atoms: _48  and  _49
REMARK   17  A    between atoms: _48  and  _51
REMARK   18  A    between atoms: _51  and  _52
REMARK   19  A    between atoms: _57  and  _59
REMARK   20  A    between atoms: _59  and  _60
REMARK   21  A    between atoms: _63  and  _65
REMARK   22  A    between atoms: _65  and  _66
REMARK   23  A    between atoms: _65  and  _68
REMARK   24  A    between atoms: _68  and  _69
REMARK   25  A    between atoms: _74  and  _76
REMARK   26  A    between atoms: _76  and  _77
REMARK   27  A    between atoms: _76  and  _79
REMARK   28  A    between atoms: _79  and  _80
REMARK   29  A    between atoms: _83  and  _85
REMARK   30  A    between atoms: _85  and  _86
REMARK   31  A    between atoms: _85  and  _88
REMARK   32  A    between atoms: _88  and  _89
REMARK   33  A    between atoms: _89  and  _90
REMARK   34  A    between atoms: _95  and  _97
REMARK   35  A    between atoms: _97  and  _98
REMARK   36  A    between atoms: _97  and  _100
REMARK   37  A    between atoms: _100  and  _101
REMARK   38  A    between atoms: _107  and  _109
REMARK   39  A    between atoms: _120  and  _123
REMARK   40  A    between atoms: _123  and  _124
REMARK   41  A    between atoms: _132  and  _133
REMARK   42  A    between atoms: _141  and  _143
REMARK   43  A    between atoms: _143  and  _144
REMARK   44  A    between atoms: _143  and  _146
REMARK   45  A    between atoms: _146  and  _147
REMARK   46  A    between atoms: _147  and  _148
REMARK   47  A    between atoms: _151  and  _153
REMARK   48  A    between atoms: _153  and  _154
REMARK   49  A    between atoms: _153  and  _156
REMARK   50  A    between atoms: _156  and  _157
REMARK   51  A    between atoms: _162  and  _164
REMARK   52  A    between atoms: _164  and  _165
REMARK   53  A    between atoms: _164  and  _167
REMARK   54  A    between atoms: _167  and  _168
REMARK   55  A    between atoms: _168  and  _169
REMARK   56  A    between atoms: _172  and  _174
REMARK   57  A    between atoms: _174  and  _175
REMARK   58  A    between atoms: _174  and  _177
REMARK   59  A    between atoms: _177  and  _178
REMARK   60  A    between atoms: _181  and  _183
REMARK   61  A    between atoms: _183  and  _184
REMARK   62  A    between atoms: _183  and  _186
REMARK   63  A    between atoms: _186  and  _187
REMARK   64  A    between atoms: _188  and  ZN_438
REMARK   65  A    between atoms: _192  and  _194
REMARK   66  A    between atoms: _194  and  _195
REMARK   67  A    between atoms: _194  and  _197
REMARK   68  A    between atoms: _197  and  _198
REMARK   69  A    between atoms: _201  and  _203
REMARK   70  A    between atoms: _203  and  _204
REMARK   71  A    between atoms: _203  and  _206
REMARK   72  A    between atoms: _209  and  _211
REMARK   73  A    between atoms: _211  and  _212
REMARK   74  A    between atoms: _211  and  _214
REMARK   75  A    between atoms: _214  and  _215
REMARK   76  A    between atoms: _220  and  _222
REMARK   77  A    between atoms: _222  and  _223
REMARK   78  A    between atoms: _222  and  _225
REMARK   79  A    between atoms: _225  and  _226
REMARK   80  A    between atoms: _232  and  _234
REMARK   81  A    between atoms: _234  and  _235
REMARK   82  A    between atoms: _237  and  _239
REMARK   83  A    between atoms: _239  and  _240
REMARK   84  A    between atoms: _239  and  _242
REMARK   85  A    between atoms: _242  and  _243
REMARK   86  A    between atoms: _243  and  _244
REMARK   87  A    between atoms: _244  and  _245
REMARK   88  A    between atoms: _245  and  _246
REMARK   89  A    between atoms: _250  and  _252
REMARK   90  A    between atoms: _252  and  _253
REMARK   91  A    between atoms: _252  and  _255
REMARK   92  A    between atoms: _258  and  _260
REMARK   93  A    between atoms: _260  and  _261
REMARK   94  A    between atoms: _260  and  _263
REMARK   95  A    between atoms: _263  and  _264
REMARK   96  A    between atoms: _264  and  _265
REMARK   97  A    between atoms: _270  and  _272
REMARK   98  A    between atoms: _272  and  _273
REMARK   99  A    between atoms: _272  and  _275
REMARK  100  A    between atoms: _275  and  _276
REMARK  101  A    between atoms: _279  and  _281
REMARK  102  A    between atoms: _281  and  _282
REMARK  103  A    between atoms: _285  and  _287
REMARK  104  A    between atoms: _287  and  _288
REMARK  105  A    between atoms: _287  and  _290
REMARK  106  A    between atoms: _293  and  _295
REMARK  107  A    between atoms: _295  and  _296
REMARK  108  A    between atoms: _295  and  _298
REMARK  109  A    between atoms: _298  and  _299
REMARK  110  A    between atoms: _302  and  _304
REMARK  111  A    between atoms: _304  and  _305
REMARK  112  A    between atoms: _307  and  _309
REMARK  113  A    between atoms: _309  and  _310
REMARK  114  A    between atoms: _312  and  _314
REMARK  115  A    between atoms: _314  and  _315
REMARK  116  A    between atoms: _314  and  _317
REMARK  117  A    between atoms: _317  and  _318
REMARK  118  A    between atoms: _320  and  _322
REMARK  119  A    between atoms: _322  and  _323
REMARK  120  A    between atoms: _322  and  _325
REMARK  121  A    between atoms: _325  and  _326
REMARK  122  A    between atoms: _329  and  _331
REMARK  123  A    between atoms: _331  and  _332
REMARK  124  A    between atoms: _331  and  _334
REMARK  125  A    between atoms: _334  and  _335
REMARK  126  A    between atoms: _338  and  _340
REMARK  127  A    between atoms: _340  and  _341
REMARK  128  A    between atoms: _340  and  _343
REMARK  129  A    between atoms: _343  and  _344
REMARK  130  A    between atoms: _348  and  _349
REMARK  131  A    between atoms: _355  and  _356
REMARK  132  A    between atoms: _361  and  _363
REMARK  133  A    between atoms: _363  and  _364
REMARK  134  A    between atoms: _363  and  _366
REMARK  135  A    between atoms: _366  and  _367
REMARK  136  A    between atoms: _370  and  _372
REMARK  137  A    between atoms: _372  and  _373
REMARK  138  A    between atoms: _372  and  _375
REMARK  139  A    between atoms: _375  and  _376
REMARK  140  A    between atoms: _379  and  _381
REMARK  141  A    between atoms: _381  and  _382
REMARK  142  A    between atoms: _381  and  _384
REMARK  143  A    between atoms: _386  and  _388
REMARK  144  A    between atoms: _388  and  _389
REMARK  145  A    between atoms: _388  and  _391
REMARK  146  A    between atoms: _394  and  _396
REMARK  147  A    between atoms: _396  and  _397
REMARK  148  A    between atoms: _396  and  _399
REMARK  149  A    between atoms: _399  and  _400
REMARK  150  A    between atoms: _410  and  _412
REMARK  151  A    between atoms: _412  and  _413
REMARK  152  A    between atoms: _412  and  _415
REMARK  153  A    between atoms: _415  and  _416
REMARK  154  A    between atoms: _421  and  _423
REMARK  155  A    between atoms: _423  and  _424
REMARK  156  A    between atoms: _423  and  _426
REMARK  157  A    between atoms: _426  and  _427
REMARK  158  A    between atoms: _427  and  _428
REMARK  159  A    between atoms: _428  and  _429
REMARK                            x       y       z     vdW  Elec       q    Type
REMARK                         _______ _______ _______ _____ _____    ______ ____
ROOT
ATOM      1  O   HOH     1      15.382  12.089   9.962  0.00  0.00    +0.000 OA
ENDROOT
TORSDOF 0
